*SPEF "IEEE 1481-1998"
*DESIGN "asynchronous_fifo"
*DATE "Wed Mar 18 15:46:47 2026"
*VENDOR "Cadence Design Systems, Inc."
*PROGRAM "Innovus"
*VERSION "20.14-s095_1"
*DESIGN_FLOW "COUPLING C" "PIN_CAP NONE" "NAME_SCOPE LOCAL"
*DIVIDER /
*DELIMITER :
*BUS_DELIMITER []
*T_UNIT 1 NS
*C_UNIT 1 PF
*R_UNIT 1 OHM
*L_UNIT 1 HENRY

// MMMC spef file for corner 'RC'

*NAME_MAP

*1 FE_PHN157_scan_en
*2 FE_PHN156_scan_en
*3 FE_PHN155_scan_en
*4 FE_PHN154_scan_en
*5 FE_PHN153_scan_en
*6 FE_PHN152_scan_en
*7 FE_PHN151_scan_en
*8 FE_PHN150_scan_en
*9 FE_PHN149_scan_en
*10 FE_PHN148_scan_en
*11 FE_PHN147_scan_en
*12 FE_PHN146_scan_en
*13 FE_PHN145_scan_en
*14 FE_PHN144_scan_en
*15 FE_PHN143_scan_en
*16 FE_PHN142_scan_in
*17 FE_PHN141_DFT_sdi_1
*18 FE_PHN140_DFT_sdi_1
*19 FE_PHN139_scan_in
*20 FE_PHN138_scan_en
*21 FE_OFN648_n_118
*22 FE_OFN647_n_77
*23 FE_OFN646_n_619
*24 FE_OFN645_n_619
*25 FE_OFN644_n_505
*26 FE_OFN643_n_634
*27 FE_OFN642_n_121
*28 FE_OFN641_n_479
*29 FE_OFN640_n_117
*30 FE_OFN639_n_503
*31 FE_OFN638_n_500
*32 FE_OFN637_n_83
*33 FE_OFN636_n_103
*34 FE_OFN635_n_80
*35 FE_OFN135_n_631
*36 FE_OFN131_n_633
*37 FE_OFN129_n_624
*38 FE_OFN128_n_627
*39 FE_OFN127_n_617
*40 FE_OFN126_n_617
*41 FE_OFN123_n_621
*42 FE_OFN106_n_465
*43 FE_OFN105_n_319
*44 FE_OFN104_n_322
*45 FE_OFN103_n_320
*46 FE_OFN101_n_284
*47 FE_OFN100_n_283
*48 FE_OFN98_n_323
*49 FE_OFN86_n_422
*50 FE_OFN74_n_439
*51 FE_OFN73_n_440
*52 FE_OFN71_n_428
*53 FE_OFN64_n_216
*54 FE_OFN63_n_429
*55 FE_OFN55_n_499
*56 FE_OFN54_n_582
*57 FE_OFN53_n_557
*58 FE_OFN52_n_502
*59 FE_OFN51_n_560
*60 FE_OFN50_n_561
*61 FE_OFN49_n_1112
*62 FE_OFN48_n_581
*63 FE_OFN47_n_1114
*64 FE_OFN46_n_583
*65 FE_OFN45_n_1121
*66 FE_OFN44_n_565
*67 FE_OFN41_n_506
*68 FE_OFN39_n_481
*69 FE_OFN37_n_482
*70 FE_OFN27_n_508
*71 FE_OFN21_n_517
*72 FE_OFN16_n_89
*73 FE_OFN15_n_93
*74 FE_OFN14_n_95
*75 FE_OFN9_scan_en
*76 FE_OFN8_scan_en
*77 FE_OFN7_scan_en
*78 FE_OFN6_scan_en
*79 FE_OFN5_scan_en
*80 FE_OFN4_scan_en
*81 FE_OFN3_scan_en
*82 FE_OFN2_scan_en
*83 FE_OFN1_scan_en
*84 FE_OFN0_scan_en
*85 CTS_5
*86 CTS_4
*87 CTS_3
*88 CTS_2
*89 CTS_1
*90 CTS_7
*91 CTS_9
*92 CTS_8
*93 CTS_6
*94 FE_DBTN0_rst
*95 wclk
*96 rclk
*97 rst
*98 w_en
*99 r_en
*100 data_in[7]
*101 data_in[6]
*102 data_in[5]
*103 data_in[4]
*104 data_in[3]
*105 data_in[2]
*106 data_in[1]
*107 data_in[0]
*108 data_out[7]
*109 data_out[6]
*110 data_out[5]
*111 data_out[4]
*112 data_out[3]
*113 data_out[2]
*114 data_out[1]
*115 data_out[0]
*116 full
*117 empty
*118 scan_en
*119 scan_in
*120 scan_out
*121 DFT_sdi_1
*122 DFT_sdo_1
*123 g_rptr[6]
*124 g_rptr[5]
*125 g_rptr[4]
*126 g_rptr[3]
*127 g_rptr[2]
*128 g_rptr[1]
*129 g_rptr[0]
*130 g_wptr[6]
*131 g_wptr[4]
*132 g_wptr[3]
*133 g_wptr[2]
*134 g_wptr[1]
*135 g_wptr[0]
*136 g_wptr_sync[5]
*137 g_wptr_sync[4]
*138 g_wptr_sync[3]
*139 g_wptr_sync[2]
*140 g_wptr_sync[1]
*141 g_wptr_sync[0]
*142 g_rptr_sync[6]
*143 g_rptr_sync[5]
*144 g_rptr_sync[4]
*145 g_rptr_sync[3]
*146 g_rptr_sync[2]
*147 g_rptr_sync[1]
*148 g_rptr_sync[0]
*149 b_wptr[5]
*150 b_wptr[4]
*151 b_wptr[3]
*152 b_wptr[2]
*153 b_wptr[1]
*154 b_wptr[0]
*155 b_rptr[5]
*156 b_rptr[4]
*157 b_rptr[3]
*158 b_rptr[2]
*159 b_rptr[1]
*160 b_rptr[0]
*161 fifom_fifo\[63\][7]
*162 fifom_fifo\[63\][6]
*163 fifom_fifo\[63\][5]
*164 fifom_fifo\[63\][4]
*165 fifom_fifo\[63\][3]
*166 fifom_fifo\[63\][2]
*167 fifom_fifo\[63\][1]
*168 fifom_fifo\[63\][0]
*169 fifom_fifo\[61\][7]
*170 fifom_fifo\[61\][6]
*171 fifom_fifo\[61\][5]
*172 fifom_fifo\[61\][4]
*173 fifom_fifo\[61\][3]
*174 fifom_fifo\[61\][2]
*175 fifom_fifo\[61\][1]
*176 fifom_fifo\[61\][0]
*177 fifom_fifo\[53\][7]
*178 fifom_fifo\[53\][6]
*179 fifom_fifo\[53\][5]
*180 fifom_fifo\[53\][4]
*181 fifom_fifo\[53\][3]
*182 fifom_fifo\[53\][2]
*183 fifom_fifo\[53\][1]
*184 fifom_fifo\[53\][0]
*185 fifom_fifo\[37\][7]
*186 fifom_fifo\[37\][6]
*187 fifom_fifo\[37\][5]
*188 fifom_fifo\[37\][4]
*189 fifom_fifo\[37\][3]
*190 fifom_fifo\[37\][2]
*191 fifom_fifo\[37\][1]
*192 fifom_fifo\[37\][0]
*193 fifom_fifo\[36\][7]
*194 fifom_fifo\[36\][6]
*195 fifom_fifo\[36\][5]
*196 fifom_fifo\[36\][4]
*197 fifom_fifo\[36\][3]
*198 fifom_fifo\[36\][2]
*199 fifom_fifo\[36\][1]
*200 fifom_fifo\[36\][0]
*201 fifom_fifo\[49\][7]
*202 fifom_fifo\[49\][6]
*203 fifom_fifo\[49\][5]
*204 fifom_fifo\[49\][4]
*205 fifom_fifo\[49\][3]
*206 fifom_fifo\[49\][2]
*207 fifom_fifo\[49\][1]
*208 fifom_fifo\[49\][0]
*209 fifom_fifo\[48\][7]
*210 fifom_fifo\[48\][6]
*211 fifom_fifo\[48\][5]
*212 fifom_fifo\[48\][4]
*213 fifom_fifo\[48\][3]
*214 fifom_fifo\[48\][2]
*215 fifom_fifo\[48\][1]
*216 fifom_fifo\[48\][0]
*217 fifom_fifo\[52\][7]
*218 fifom_fifo\[52\][6]
*219 fifom_fifo\[52\][5]
*220 fifom_fifo\[52\][4]
*221 fifom_fifo\[52\][3]
*222 fifom_fifo\[52\][2]
*223 fifom_fifo\[52\][1]
*224 fifom_fifo\[52\][0]
*225 fifom_fifo\[55\][7]
*226 fifom_fifo\[55\][6]
*227 fifom_fifo\[55\][5]
*228 fifom_fifo\[55\][4]
*229 fifom_fifo\[55\][3]
*230 fifom_fifo\[55\][2]
*231 fifom_fifo\[55\][1]
*232 fifom_fifo\[55\][0]
*233 fifom_fifo\[54\][7]
*234 fifom_fifo\[54\][6]
*235 fifom_fifo\[54\][5]
*236 fifom_fifo\[54\][4]
*237 fifom_fifo\[54\][3]
*238 fifom_fifo\[54\][2]
*239 fifom_fifo\[54\][1]
*240 fifom_fifo\[54\][0]
*241 fifom_fifo\[60\][7]
*242 fifom_fifo\[60\][6]
*243 fifom_fifo\[60\][5]
*244 fifom_fifo\[60\][4]
*245 fifom_fifo\[60\][3]
*246 fifom_fifo\[60\][2]
*247 fifom_fifo\[60\][1]
*248 fifom_fifo\[60\][0]
*249 fifom_fifo\[45\][7]
*250 fifom_fifo\[45\][6]
*251 fifom_fifo\[45\][5]
*252 fifom_fifo\[45\][4]
*253 fifom_fifo\[45\][3]
*254 fifom_fifo\[45\][2]
*255 fifom_fifo\[45\][1]
*256 fifom_fifo\[45\][0]
*257 fifom_fifo\[33\][7]
*258 fifom_fifo\[33\][6]
*259 fifom_fifo\[33\][5]
*260 fifom_fifo\[33\][4]
*261 fifom_fifo\[33\][3]
*262 fifom_fifo\[33\][2]
*263 fifom_fifo\[33\][1]
*264 fifom_fifo\[33\][0]
*265 fifom_fifo\[57\][7]
*266 fifom_fifo\[57\][6]
*267 fifom_fifo\[57\][5]
*268 fifom_fifo\[57\][4]
*269 fifom_fifo\[57\][3]
*270 fifom_fifo\[57\][2]
*271 fifom_fifo\[57\][1]
*272 fifom_fifo\[57\][0]
*273 fifom_fifo\[28\][7]
*274 fifom_fifo\[28\][6]
*275 fifom_fifo\[28\][5]
*276 fifom_fifo\[28\][4]
*277 fifom_fifo\[28\][3]
*278 fifom_fifo\[28\][2]
*279 fifom_fifo\[28\][1]
*280 fifom_fifo\[28\][0]
*281 fifom_fifo\[16\][7]
*282 fifom_fifo\[16\][6]
*283 fifom_fifo\[16\][5]
*284 fifom_fifo\[16\][4]
*285 fifom_fifo\[16\][3]
*286 fifom_fifo\[16\][2]
*287 fifom_fifo\[16\][1]
*288 fifom_fifo\[16\][0]
*289 fifom_fifo\[51\][7]
*290 fifom_fifo\[51\][6]
*291 fifom_fifo\[51\][5]
*292 fifom_fifo\[51\][4]
*293 fifom_fifo\[51\][3]
*294 fifom_fifo\[51\][2]
*295 fifom_fifo\[51\][1]
*296 fifom_fifo\[51\][0]
*297 fifom_fifo\[41\][7]
*298 fifom_fifo\[41\][6]
*299 fifom_fifo\[41\][5]
*300 fifom_fifo\[41\][4]
*301 fifom_fifo\[41\][3]
*302 fifom_fifo\[41\][2]
*303 fifom_fifo\[41\][1]
*304 fifom_fifo\[41\][0]
*305 fifom_fifo\[35\][7]
*306 fifom_fifo\[35\][6]
*307 fifom_fifo\[35\][5]
*308 fifom_fifo\[35\][4]
*309 fifom_fifo\[35\][3]
*310 fifom_fifo\[35\][2]
*311 fifom_fifo\[35\][1]
*312 fifom_fifo\[35\][0]
*313 fifom_fifo\[39\][7]
*314 fifom_fifo\[39\][6]
*315 fifom_fifo\[39\][5]
*316 fifom_fifo\[39\][4]
*317 fifom_fifo\[39\][3]
*318 fifom_fifo\[39\][2]
*319 fifom_fifo\[39\][1]
*320 fifom_fifo\[39\][0]
*321 fifom_fifo\[4\][7]
*322 fifom_fifo\[4\][6]
*323 fifom_fifo\[4\][5]
*324 fifom_fifo\[4\][4]
*325 fifom_fifo\[4\][3]
*326 fifom_fifo\[4\][2]
*327 fifom_fifo\[4\][1]
*328 fifom_fifo\[4\][0]
*329 fifom_fifo\[59\][7]
*330 fifom_fifo\[59\][6]
*331 fifom_fifo\[59\][5]
*332 fifom_fifo\[59\][4]
*333 fifom_fifo\[59\][3]
*334 fifom_fifo\[59\][2]
*335 fifom_fifo\[59\][1]
*336 fifom_fifo\[59\][0]
*337 fifom_fifo\[27\][7]
*338 fifom_fifo\[27\][6]
*339 fifom_fifo\[27\][5]
*340 fifom_fifo\[27\][4]
*341 fifom_fifo\[27\][3]
*342 fifom_fifo\[27\][2]
*343 fifom_fifo\[27\][1]
*344 fifom_fifo\[27\][0]
*345 fifom_fifo\[32\][7]
*346 fifom_fifo\[32\][6]
*347 fifom_fifo\[32\][5]
*348 fifom_fifo\[32\][4]
*349 fifom_fifo\[32\][3]
*350 fifom_fifo\[32\][2]
*351 fifom_fifo\[32\][1]
*352 fifom_fifo\[32\][0]
*353 fifom_fifo\[43\][7]
*354 fifom_fifo\[43\][6]
*355 fifom_fifo\[43\][5]
*356 fifom_fifo\[43\][4]
*357 fifom_fifo\[43\][3]
*358 fifom_fifo\[43\][2]
*359 fifom_fifo\[43\][1]
*360 fifom_fifo\[43\][0]
*361 fifom_fifo\[42\][7]
*362 fifom_fifo\[42\][6]
*363 fifom_fifo\[42\][5]
*364 fifom_fifo\[42\][4]
*365 fifom_fifo\[42\][3]
*366 fifom_fifo\[42\][2]
*367 fifom_fifo\[42\][1]
*368 fifom_fifo\[42\][0]
*369 fifom_fifo\[58\][7]
*370 fifom_fifo\[58\][6]
*371 fifom_fifo\[58\][5]
*372 fifom_fifo\[58\][4]
*373 fifom_fifo\[58\][3]
*374 fifom_fifo\[58\][2]
*375 fifom_fifo\[58\][1]
*376 fifom_fifo\[58\][0]
*377 fifom_fifo\[34\][7]
*378 fifom_fifo\[34\][6]
*379 fifom_fifo\[34\][5]
*380 fifom_fifo\[34\][4]
*381 fifom_fifo\[34\][3]
*382 fifom_fifo\[34\][2]
*383 fifom_fifo\[34\][1]
*384 fifom_fifo\[34\][0]
*385 fifom_fifo\[40\][7]
*386 fifom_fifo\[40\][6]
*387 fifom_fifo\[40\][5]
*388 fifom_fifo\[40\][4]
*389 fifom_fifo\[40\][3]
*390 fifom_fifo\[40\][2]
*391 fifom_fifo\[40\][1]
*392 fifom_fifo\[40\][0]
*393 fifom_fifo\[47\][7]
*394 fifom_fifo\[47\][6]
*395 fifom_fifo\[47\][5]
*396 fifom_fifo\[47\][4]
*397 fifom_fifo\[47\][3]
*398 fifom_fifo\[47\][2]
*399 fifom_fifo\[47\][1]
*400 fifom_fifo\[47\][0]
*401 fifom_fifo\[46\][7]
*402 fifom_fifo\[46\][6]
*403 fifom_fifo\[46\][5]
*404 fifom_fifo\[46\][4]
*405 fifom_fifo\[46\][3]
*406 fifom_fifo\[46\][2]
*407 fifom_fifo\[46\][1]
*408 fifom_fifo\[46\][0]
*409 fifom_fifo\[11\][7]
*410 fifom_fifo\[11\][6]
*411 fifom_fifo\[11\][5]
*412 fifom_fifo\[11\][4]
*413 fifom_fifo\[11\][3]
*414 fifom_fifo\[11\][2]
*415 fifom_fifo\[11\][1]
*416 fifom_fifo\[11\][0]
*417 fifom_fifo\[10\][7]
*418 fifom_fifo\[10\][6]
*419 fifom_fifo\[10\][5]
*420 fifom_fifo\[10\][4]
*421 fifom_fifo\[10\][3]
*422 fifom_fifo\[10\][2]
*423 fifom_fifo\[10\][1]
*424 fifom_fifo\[10\][0]
*425 fifom_fifo\[62\][7]
*426 fifom_fifo\[62\][6]
*427 fifom_fifo\[62\][5]
*428 fifom_fifo\[62\][4]
*429 fifom_fifo\[62\][3]
*430 fifom_fifo\[62\][2]
*431 fifom_fifo\[62\][1]
*432 fifom_fifo\[62\][0]
*433 fifom_fifo\[38\][7]
*434 fifom_fifo\[38\][6]
*435 fifom_fifo\[38\][5]
*436 fifom_fifo\[38\][4]
*437 fifom_fifo\[38\][3]
*438 fifom_fifo\[38\][2]
*439 fifom_fifo\[38\][1]
*440 fifom_fifo\[38\][0]
*441 fifom_fifo\[44\][7]
*442 fifom_fifo\[44\][6]
*443 fifom_fifo\[44\][5]
*444 fifom_fifo\[44\][4]
*445 fifom_fifo\[44\][3]
*446 fifom_fifo\[44\][2]
*447 fifom_fifo\[44\][1]
*448 fifom_fifo\[44\][0]
*449 fifom_fifo\[56\][7]
*450 fifom_fifo\[56\][6]
*451 fifom_fifo\[56\][5]
*452 fifom_fifo\[56\][4]
*453 fifom_fifo\[56\][3]
*454 fifom_fifo\[56\][2]
*455 fifom_fifo\[56\][1]
*456 fifom_fifo\[56\][0]
*457 fifom_fifo\[15\][7]
*458 fifom_fifo\[15\][6]
*459 fifom_fifo\[15\][5]
*460 fifom_fifo\[15\][4]
*461 fifom_fifo\[15\][3]
*462 fifom_fifo\[15\][2]
*463 fifom_fifo\[15\][1]
*464 fifom_fifo\[15\][0]
*465 fifom_fifo\[14\][7]
*466 fifom_fifo\[14\][6]
*467 fifom_fifo\[14\][5]
*468 fifom_fifo\[14\][4]
*469 fifom_fifo\[14\][3]
*470 fifom_fifo\[14\][2]
*471 fifom_fifo\[14\][1]
*472 fifom_fifo\[14\][0]
*473 fifom_fifo\[20\][7]
*474 fifom_fifo\[20\][6]
*475 fifom_fifo\[20\][5]
*476 fifom_fifo\[20\][4]
*477 fifom_fifo\[20\][3]
*478 fifom_fifo\[20\][2]
*479 fifom_fifo\[20\][1]
*480 fifom_fifo\[20\][0]
*481 fifom_fifo\[19\][7]
*482 fifom_fifo\[19\][6]
*483 fifom_fifo\[19\][5]
*484 fifom_fifo\[19\][4]
*485 fifom_fifo\[19\][3]
*486 fifom_fifo\[19\][2]
*487 fifom_fifo\[19\][1]
*488 fifom_fifo\[19\][0]
*489 fifom_fifo\[22\][7]
*490 fifom_fifo\[22\][6]
*491 fifom_fifo\[22\][5]
*492 fifom_fifo\[22\][4]
*493 fifom_fifo\[22\][3]
*494 fifom_fifo\[22\][2]
*495 fifom_fifo\[22\][1]
*496 fifom_fifo\[22\][0]
*497 fifom_fifo\[21\][7]
*498 fifom_fifo\[21\][6]
*499 fifom_fifo\[21\][5]
*500 fifom_fifo\[21\][4]
*501 fifom_fifo\[21\][3]
*502 fifom_fifo\[21\][2]
*503 fifom_fifo\[21\][1]
*504 fifom_fifo\[21\][0]
*505 fifom_fifo\[26\][7]
*506 fifom_fifo\[26\][6]
*507 fifom_fifo\[26\][5]
*508 fifom_fifo\[26\][4]
*509 fifom_fifo\[26\][3]
*510 fifom_fifo\[26\][2]
*511 fifom_fifo\[26\][1]
*512 fifom_fifo\[26\][0]
*513 fifom_fifo\[50\][7]
*514 fifom_fifo\[50\][6]
*515 fifom_fifo\[50\][5]
*516 fifom_fifo\[50\][4]
*517 fifom_fifo\[50\][3]
*518 fifom_fifo\[50\][2]
*519 fifom_fifo\[50\][1]
*520 fifom_fifo\[50\][0]
*521 fifom_fifo\[3\][7]
*522 fifom_fifo\[3\][6]
*523 fifom_fifo\[3\][5]
*524 fifom_fifo\[3\][4]
*525 fifom_fifo\[3\][3]
*526 fifom_fifo\[3\][2]
*527 fifom_fifo\[3\][1]
*528 fifom_fifo\[3\][0]
*529 fifom_fifo\[13\][7]
*530 fifom_fifo\[13\][6]
*531 fifom_fifo\[13\][5]
*532 fifom_fifo\[13\][4]
*533 fifom_fifo\[13\][3]
*534 fifom_fifo\[13\][2]
*535 fifom_fifo\[13\][1]
*536 fifom_fifo\[13\][0]
*537 fifom_fifo\[6\][7]
*538 fifom_fifo\[6\][6]
*539 fifom_fifo\[6\][5]
*540 fifom_fifo\[6\][4]
*541 fifom_fifo\[6\][3]
*542 fifom_fifo\[6\][2]
*543 fifom_fifo\[6\][1]
*544 fifom_fifo\[6\][0]
*545 fifom_fifo\[7\][7]
*546 fifom_fifo\[7\][6]
*547 fifom_fifo\[7\][5]
*548 fifom_fifo\[7\][4]
*549 fifom_fifo\[7\][3]
*550 fifom_fifo\[7\][2]
*551 fifom_fifo\[7\][1]
*552 fifom_fifo\[7\][0]
*553 fifom_fifo\[23\][7]
*554 fifom_fifo\[23\][6]
*555 fifom_fifo\[23\][5]
*556 fifom_fifo\[23\][4]
*557 fifom_fifo\[23\][3]
*558 fifom_fifo\[23\][2]
*559 fifom_fifo\[23\][1]
*560 fifom_fifo\[23\][0]
*561 fifom_fifo\[9\][7]
*562 fifom_fifo\[9\][6]
*563 fifom_fifo\[9\][5]
*564 fifom_fifo\[9\][4]
*565 fifom_fifo\[9\][3]
*566 fifom_fifo\[9\][2]
*567 fifom_fifo\[9\][1]
*568 fifom_fifo\[9\][0]
*569 fifom_fifo\[0\][7]
*570 fifom_fifo\[0\][6]
*571 fifom_fifo\[0\][5]
*572 fifom_fifo\[0\][4]
*573 fifom_fifo\[0\][3]
*574 fifom_fifo\[0\][2]
*575 fifom_fifo\[0\][1]
*576 fifom_fifo\[0\][0]
*577 fifom_fifo\[31\][7]
*578 fifom_fifo\[31\][6]
*579 fifom_fifo\[31\][5]
*580 fifom_fifo\[31\][4]
*581 fifom_fifo\[31\][3]
*582 fifom_fifo\[31\][2]
*583 fifom_fifo\[31\][1]
*584 fifom_fifo\[31\][0]
*585 fifom_fifo\[29\][7]
*586 fifom_fifo\[29\][6]
*587 fifom_fifo\[29\][5]
*588 fifom_fifo\[29\][4]
*589 fifom_fifo\[29\][3]
*590 fifom_fifo\[29\][2]
*591 fifom_fifo\[29\][1]
*592 fifom_fifo\[29\][0]
*593 fifom_fifo\[17\][7]
*594 fifom_fifo\[17\][6]
*595 fifom_fifo\[17\][5]
*596 fifom_fifo\[17\][4]
*597 fifom_fifo\[17\][3]
*598 fifom_fifo\[17\][2]
*599 fifom_fifo\[17\][1]
*600 fifom_fifo\[17\][0]
*601 fifom_fifo\[8\][7]
*602 fifom_fifo\[8\][6]
*603 fifom_fifo\[8\][5]
*604 fifom_fifo\[8\][4]
*605 fifom_fifo\[8\][3]
*606 fifom_fifo\[8\][2]
*607 fifom_fifo\[8\][1]
*608 fifom_fifo\[8\][0]
*609 fifom_fifo\[2\][7]
*610 fifom_fifo\[2\][6]
*611 fifom_fifo\[2\][5]
*612 fifom_fifo\[2\][4]
*613 fifom_fifo\[2\][3]
*614 fifom_fifo\[2\][2]
*615 fifom_fifo\[2\][1]
*616 fifom_fifo\[2\][0]
*617 fifom_fifo\[5\][7]
*618 fifom_fifo\[5\][6]
*619 fifom_fifo\[5\][5]
*620 fifom_fifo\[5\][4]
*621 fifom_fifo\[5\][3]
*622 fifom_fifo\[5\][2]
*623 fifom_fifo\[5\][1]
*624 fifom_fifo\[5\][0]
*625 fifom_fifo\[25\][7]
*626 fifom_fifo\[25\][6]
*627 fifom_fifo\[25\][5]
*628 fifom_fifo\[25\][4]
*629 fifom_fifo\[25\][3]
*630 fifom_fifo\[25\][2]
*631 fifom_fifo\[25\][1]
*632 fifom_fifo\[25\][0]
*633 fifom_fifo\[24\][7]
*634 fifom_fifo\[24\][6]
*635 fifom_fifo\[24\][5]
*636 fifom_fifo\[24\][4]
*637 fifom_fifo\[24\][3]
*638 fifom_fifo\[24\][2]
*639 fifom_fifo\[24\][1]
*640 fifom_fifo\[24\][0]
*641 fifom_fifo\[1\][7]
*642 fifom_fifo\[1\][6]
*643 fifom_fifo\[1\][5]
*644 fifom_fifo\[1\][4]
*645 fifom_fifo\[1\][3]
*646 fifom_fifo\[1\][2]
*647 fifom_fifo\[1\][1]
*648 fifom_fifo\[1\][0]
*649 fifom_fifo\[12\][7]
*650 fifom_fifo\[12\][6]
*651 fifom_fifo\[12\][5]
*652 fifom_fifo\[12\][4]
*653 fifom_fifo\[12\][3]
*654 fifom_fifo\[12\][2]
*655 fifom_fifo\[12\][1]
*656 fifom_fifo\[12\][0]
*657 fifom_fifo\[30\][7]
*658 fifom_fifo\[30\][6]
*659 fifom_fifo\[30\][5]
*660 fifom_fifo\[30\][4]
*661 fifom_fifo\[30\][3]
*662 fifom_fifo\[30\][2]
*663 fifom_fifo\[30\][1]
*664 fifom_fifo\[30\][0]
*665 fifom_fifo\[18\][7]
*666 fifom_fifo\[18\][6]
*667 fifom_fifo\[18\][5]
*668 fifom_fifo\[18\][4]
*669 fifom_fifo\[18\][3]
*670 fifom_fifo\[18\][2]
*671 fifom_fifo\[18\][1]
*672 fifom_fifo\[18\][0]
*673 n_1
*674 n_2
*675 n_3
*676 n_4
*677 n_5
*678 n_6
*679 n_8
*680 n_9
*681 n_10
*682 n_11
*683 n_12
*684 n_13
*685 n_14
*686 n_15
*687 n_16
*688 n_17
*689 n_18
*690 n_19
*691 n_20
*692 n_24
*693 n_26
*694 n_27
*695 n_28
*696 n_29
*697 n_31
*698 n_32
*699 n_33
*700 n_34
*701 n_35
*702 n_36
*703 n_41
*704 n_42
*705 n_43
*706 n_44
*707 n_45
*708 n_46
*709 n_48
*710 n_49
*711 n_50
*712 n_51
*713 n_52
*714 n_53
*715 n_57
*716 n_58
*717 n_59
*718 n_60
*719 n_61
*720 n_62
*721 n_63
*722 n_64
*723 n_65
*724 n_66
*725 n_68
*726 n_69
*727 n_70
*728 n_71
*729 n_72
*730 n_73
*731 n_74
*732 n_75
*733 n_77
*734 n_78
*735 n_79
*736 n_80
*737 n_81
*738 n_82
*739 n_83
*740 n_84
*741 n_86
*742 n_87
*743 n_89
*744 n_90
*745 n_91
*746 n_92
*747 n_93
*748 n_94
*749 n_95
*750 n_96
*751 n_97
*752 n_98
*753 n_99
*754 n_100
*755 n_101
*756 n_102
*757 n_103
*758 n_104
*759 n_105
*760 n_107
*761 n_108
*762 n_109
*763 n_110
*764 n_111
*765 n_112
*766 n_113
*767 n_114
*768 n_115
*769 n_116
*770 n_117
*771 n_118
*772 n_119
*773 n_120
*774 n_121
*775 n_125
*776 n_126
*777 n_128
*778 n_129
*779 n_130
*780 n_131
*781 n_132
*782 n_133
*783 n_134
*784 n_135
*785 n_136
*786 n_137
*787 n_138
*788 n_139
*789 n_140
*790 n_141
*791 n_142
*792 n_143
*793 n_144
*794 n_145
*795 n_146
*796 n_147
*797 n_148
*798 n_149
*799 n_150
*800 n_151
*801 n_152
*802 n_153
*803 n_154
*804 n_155
*805 n_156
*806 n_157
*807 n_158
*808 n_159
*809 n_160
*810 n_161
*811 n_162
*812 n_163
*813 n_164
*814 n_165
*815 n_166
*816 n_167
*817 n_168
*818 n_169
*819 n_170
*820 n_171
*821 n_172
*822 n_173
*823 n_174
*824 n_175
*825 n_176
*826 n_177
*827 n_178
*828 n_179
*829 n_180
*830 n_181
*831 n_182
*832 n_183
*833 n_184
*834 n_185
*835 n_186
*836 n_187
*837 n_188
*838 n_189
*839 n_190
*840 n_191
*841 n_192
*842 n_193
*843 n_194
*844 n_195
*845 n_196
*846 n_197
*847 n_198
*848 n_199
*849 n_200
*850 n_201
*851 n_202
*852 n_203
*853 n_204
*854 n_205
*855 n_206
*856 n_207
*857 n_208
*858 n_209
*859 n_210
*860 n_211
*861 n_212
*862 n_213
*863 n_214
*864 n_215
*865 n_216
*866 n_217
*867 n_218
*868 n_219
*869 n_220
*870 n_221
*871 n_222
*872 n_223
*873 n_224
*874 n_225
*875 n_226
*876 n_227
*877 n_228
*878 n_229
*879 n_230
*880 n_231
*881 n_232
*882 n_233
*883 n_234
*884 n_235
*885 n_236
*886 n_237
*887 n_238
*888 n_239
*889 n_240
*890 n_241
*891 n_242
*892 n_243
*893 n_244
*894 n_245
*895 n_247
*896 n_248
*897 n_249
*898 n_250
*899 n_251
*900 n_252
*901 n_253
*902 n_254
*903 n_255
*904 n_256
*905 n_257
*906 n_258
*907 n_259
*908 n_260
*909 n_261
*910 n_262
*911 n_263
*912 n_264
*913 n_265
*914 n_266
*915 n_267
*916 n_268
*917 n_269
*918 n_270
*919 n_271
*920 n_272
*921 n_273
*922 n_274
*923 n_275
*924 n_276
*925 n_277
*926 n_278
*927 n_279
*928 n_280
*929 n_281
*930 n_282
*931 n_283
*932 n_284
*933 n_285
*934 n_286
*935 n_287
*936 n_288
*937 n_289
*938 n_290
*939 n_291
*940 n_292
*941 n_293
*942 n_294
*943 n_295
*944 n_296
*945 n_297
*946 n_298
*947 n_300
*948 n_301
*949 n_302
*950 n_303
*951 n_304
*952 n_305
*953 n_306
*954 n_307
*955 n_308
*956 n_309
*957 n_310
*958 n_311
*959 n_312
*960 n_313
*961 n_314
*962 n_315
*963 n_316
*964 n_317
*965 n_318
*966 n_319
*967 n_320
*968 n_321
*969 n_322
*970 n_323
*971 n_324
*972 n_325
*973 n_326
*974 n_327
*975 n_328
*976 n_329
*977 n_330
*978 n_331
*979 n_332
*980 n_333
*981 n_334
*982 n_335
*983 n_336
*984 n_337
*985 n_338
*986 n_339
*987 n_340
*988 n_341
*989 n_342
*990 n_343
*991 n_344
*992 n_345
*993 n_346
*994 n_347
*995 n_348
*996 n_349
*997 n_350
*998 n_351
*999 n_352
*1000 n_353
*1001 n_354
*1002 n_355
*1003 n_356
*1004 n_357
*1005 n_358
*1006 n_359
*1007 n_360
*1008 n_361
*1009 n_362
*1010 n_363
*1011 n_364
*1012 n_365
*1013 n_366
*1014 n_367
*1015 n_368
*1016 n_369
*1017 n_370
*1018 n_371
*1019 n_372
*1020 n_373
*1021 n_374
*1022 n_375
*1023 n_376
*1024 n_377
*1025 n_378
*1026 n_379
*1027 n_380
*1028 n_381
*1029 n_382
*1030 n_383
*1031 n_384
*1032 n_385
*1033 n_386
*1034 n_387
*1035 n_388
*1036 n_389
*1037 n_390
*1038 n_391
*1039 n_392
*1040 n_393
*1041 n_394
*1042 n_395
*1043 n_396
*1044 n_397
*1045 n_398
*1046 n_399
*1047 n_400
*1048 n_401
*1049 n_402
*1050 n_403
*1051 n_404
*1052 n_405
*1053 n_406
*1054 n_407
*1055 n_408
*1056 n_409
*1057 n_410
*1058 n_411
*1059 n_412
*1060 n_413
*1061 n_414
*1062 n_415
*1063 n_416
*1064 n_417
*1065 n_418
*1066 n_419
*1067 n_420
*1068 n_421
*1069 n_422
*1070 n_423
*1071 n_424
*1072 n_425
*1073 n_426
*1074 n_427
*1075 n_428
*1076 n_429
*1077 n_430
*1078 n_431
*1079 n_432
*1080 n_433
*1081 n_434
*1082 n_435
*1083 n_436
*1084 n_437
*1085 n_438
*1086 n_439
*1087 n_440
*1088 n_441
*1089 n_442
*1090 n_443
*1091 n_444
*1092 n_445
*1093 n_446
*1094 n_447
*1095 n_448
*1096 n_449
*1097 n_450
*1098 n_451
*1099 n_452
*1100 n_453
*1101 n_454
*1102 n_457
*1103 n_458
*1104 n_459
*1105 n_460
*1106 n_461
*1107 n_462
*1108 n_463
*1109 n_464
*1110 n_465
*1111 n_466
*1112 n_467
*1113 n_468
*1114 n_469
*1115 n_470
*1116 n_471
*1117 n_472
*1118 n_473
*1119 n_475
*1120 n_476
*1121 n_477
*1122 n_478
*1123 n_479
*1124 n_480
*1125 n_481
*1126 n_482
*1127 n_483
*1128 n_484
*1129 n_485
*1130 n_486
*1131 n_488
*1132 n_489
*1133 n_490
*1134 n_491
*1135 n_492
*1136 n_493
*1137 n_494
*1138 n_495
*1139 n_496
*1140 n_497
*1141 n_498
*1142 n_499
*1143 n_500
*1144 n_501
*1145 n_502
*1146 n_503
*1147 n_504
*1148 n_505
*1149 n_506
*1150 n_507
*1151 n_508
*1152 n_509
*1153 n_510
*1154 n_512
*1155 n_513
*1156 n_514
*1157 n_515
*1158 n_517
*1159 n_518
*1160 n_519
*1161 n_520
*1162 n_521
*1163 n_522
*1164 n_524
*1165 n_525
*1166 n_526
*1167 n_527
*1168 n_528
*1169 n_529
*1170 n_530
*1171 n_531
*1172 n_532
*1173 n_533
*1174 n_534
*1175 n_535
*1176 n_536
*1177 n_537
*1178 n_538
*1179 n_539
*1180 n_540
*1181 n_541
*1182 n_542
*1183 n_543
*1184 n_544
*1185 n_545
*1186 n_546
*1187 n_548
*1188 n_549
*1189 n_550
*1190 n_551
*1191 n_552
*1192 n_553
*1193 n_554
*1194 n_555
*1195 n_557
*1196 n_559
*1197 n_560
*1198 n_561
*1199 n_563
*1200 n_564
*1201 n_565
*1202 n_566
*1203 n_567
*1204 n_568
*1205 n_569
*1206 n_570
*1207 n_571
*1208 n_572
*1209 n_573
*1210 n_574
*1211 n_575
*1212 n_576
*1213 n_577
*1214 n_578
*1215 n_579
*1216 n_581
*1217 n_582
*1218 n_583
*1219 n_585
*1220 n_586
*1221 n_587
*1222 n_588
*1223 n_589
*1224 n_590
*1225 n_591
*1226 n_592
*1227 n_594
*1228 n_595
*1229 n_596
*1230 n_597
*1231 n_598
*1232 n_599
*1233 n_600
*1234 n_601
*1235 n_603
*1236 n_604
*1237 n_605
*1238 n_606
*1239 n_607
*1240 n_609
*1241 n_610
*1242 n_611
*1243 n_612
*1244 n_613
*1245 n_614
*1246 n_615
*1247 n_616
*1248 n_617
*1249 n_618
*1250 n_619
*1251 n_620
*1252 n_621
*1253 n_622
*1254 n_623
*1255 n_624
*1256 n_626
*1257 n_627
*1258 n_628
*1259 n_629
*1260 n_630
*1261 n_631
*1262 n_632
*1263 n_633
*1264 n_634
*1265 n_635
*1266 n_636
*1267 n_637
*1268 n_638
*1269 n_639
*1270 n_640
*1271 n_641
*1272 n_642
*1273 n_643
*1274 n_644
*1275 n_645
*1276 n_646
*1277 n_647
*1278 n_648
*1279 n_649
*1280 n_650
*1281 n_651
*1282 n_652
*1283 n_653
*1284 n_654
*1285 n_655
*1286 n_656
*1287 n_657
*1288 n_658
*1289 n_660
*1290 n_661
*1291 n_662
*1292 n_663
*1293 n_664
*1294 n_665
*1295 n_666
*1296 n_667
*1297 n_668
*1298 n_669
*1299 n_670
*1300 n_671
*1301 n_672
*1302 n_673
*1303 n_674
*1304 n_675
*1305 n_676
*1306 n_677
*1307 n_678
*1308 n_679
*1309 n_680
*1310 n_681
*1311 n_682
*1312 n_683
*1313 n_684
*1314 n_685
*1315 n_687
*1316 n_688
*1317 n_694
*1318 n_1107
*1319 n_1108
*1320 n_1109
*1321 n_1110
*1322 n_1111
*1323 n_1112
*1324 n_1113
*1325 n_1114
*1326 n_1115
*1327 n_1116
*1328 n_1117
*1329 n_1118
*1330 n_1119
*1331 n_1120
*1332 n_1121
*1333 n_1122
*1334 n_1123
*1335 n_1124
*1336 n_1125
*1337 FE_PHC157_scan_en
*1338 FE_PHC156_scan_en
*1339 FE_PHC155_scan_en
*1340 FE_PHC154_scan_en
*1341 FE_PHC153_scan_en
*1342 FE_PHC152_scan_en
*1343 FE_PHC151_scan_en
*1344 FE_PHC150_scan_en
*1345 FE_PHC149_scan_en
*1346 FE_PHC148_scan_en
*1347 FE_PHC147_scan_en
*1348 FE_PHC146_scan_en
*1349 FE_PHC145_scan_en
*1350 FE_PHC144_scan_en
*1351 FE_PHC143_scan_en
*1352 FE_PHC142_scan_in
*1353 FE_PHC141_DFT_sdi_1
*1354 FE_PHC140_DFT_sdi_1
*1355 FE_PHC139_scan_in
*1356 FE_PHC138_scan_en
*1357 FE_OFC151_n_118
*1358 FE_OFC150_n_77
*1359 FE_OFC149_n_619
*1360 FE_OFC148_n_619
*1361 FE_OFC147_n_505
*1362 FE_OFC146_n_634
*1363 FE_OFC145_n_121
*1364 FE_OFC144_n_479
*1365 FE_OFC143_n_117
*1366 FE_OFC142_n_503
*1367 FE_OFC141_n_500
*1368 FE_OFC140_n_83
*1369 FE_OFC139_n_103
*1370 FE_OFC138_n_80
*1371 FE_OFC135_n_631
*1372 FE_OFC131_n_633
*1373 FE_OFC129_n_624
*1374 FE_OFC128_n_627
*1375 FE_OFC127_n_617
*1376 FE_OFC126_n_617
*1377 FE_OFC123_n_621
*1378 FE_OFC106_n_465
*1379 FE_OFC105_n_319
*1380 FE_OFC104_n_322
*1381 FE_OFC103_n_320
*1382 FE_OFC101_n_284
*1383 FE_OFC100_n_283
*1384 FE_OFC98_n_323
*1385 FE_OFC86_n_422
*1386 FE_OFC74_n_439
*1387 FE_OFC73_n_440
*1388 FE_OFC71_n_428
*1389 FE_OFC64_n_216
*1390 FE_OFC63_n_429
*1391 FE_OFC55_n_499
*1392 FE_OFC54_n_582
*1393 FE_OFC53_n_557
*1394 FE_OFC52_n_502
*1395 FE_OFC51_n_560
*1396 FE_OFC50_n_561
*1397 FE_OFC49_n_1112
*1398 FE_OFC48_n_581
*1399 FE_OFC47_n_1114
*1400 FE_OFC46_n_583
*1401 FE_OFC45_n_1121
*1402 FE_OFC44_n_565
*1403 FE_OFC41_n_506
*1404 FE_OFC39_n_481
*1405 FE_OFC37_n_482
*1406 FE_OFC27_n_508
*1407 FE_OFC21_n_517
*1408 FE_OFC16_n_89
*1409 FE_OFC15_n_93
*1410 FE_OFC14_n_95
*1411 FE_OFC9_scan_en
*1412 FE_OFC8_scan_en
*1413 FE_OFC7_scan_en
*1414 FE_OFC6_scan_en
*1415 FE_OFC5_scan_en
*1416 FE_OFC4_scan_en
*1417 FE_OFC3_scan_en
*1418 FE_OFC2_scan_en
*1419 FE_OFC1_scan_en
*1420 FE_OFC0_scan_en
*1421 CTS_ccl_a_buf_00018
*1422 CTS_ccl_a_buf_00016
*1423 CTS_ccl_a_buf_00014
*1424 CTS_ccl_a_buf_00012
*1425 CTS_ccl_a_buf_00010
*1426 CTS_ccl_a_buf_00008
*1427 CTS_cdb_buf_00034
*1428 CTS_cdb_buf_00036
*1429 CTS_cdb_buf_00037
*1430 FE_DBTC0_rst
*1431 rptr_h_empty_reg
*1432 wptr_h_full_reg
*1433 g21184__2398
*1434 g21185__5107
*1435 g21187__6260
*1436 g21186__4319
*1437 g21188__8428
*1438 g21189__5526
*1439 g21194__6783
*1440 g21195__3680
*1441 g21190__1617
*1442 g21200__2802
*1443 g21191__1705
*1444 g21201__5122
*1445 g21192__8246
*1446 g21193__7098
*1447 g21196__6131
*1448 g21197__1881
*1449 g21205__5115
*1450 g21198__7482
*1451 g21199__4733
*1452 g21206__6161
*1453 g21225__9315
*1454 g21226__9945
*1455 g21212__2883
*1456 sync_wptr_dout_reg\[5\]
*1457 sync_wptr_dout_reg\[4\]
*1458 sync_rptr_dout_reg\[5\]
*1459 g21213__2346
*1460 sync_rptr_dout_reg\[4\]
*1461 g21231__1666
*1462 g21232__7410
*1463 sync_wptr_dout_reg\[3\]
*1464 fifom_dout_reg\[0\]
*1465 fifom_dout_reg\[4\]
*1466 fifom_dout_reg\[1\]
*1467 fifom_dout_reg\[3\]
*1468 fifom_dout_reg\[6\]
*1469 fifom_dout_reg\[5\]
*1470 fifom_dout_reg\[2\]
*1471 fifom_dout_reg\[7\]
*1472 sync_rptr_dout_reg\[3\]
*1473 g21257__6417
*1474 sync_rptr_dout_reg\[2\]
*1475 wptr_h_g_wptr_reg\[4\]
*1476 wptr_h_g_wptr_reg\[5\]
*1477 sync_wptr_dout_reg\[2\]
*1478 g21258__5477
*1479 rptr_h_g_rptr_reg\[4\]
*1480 rptr_h_g_rptr_reg\[5\]
*1481 wptr_h_g_wptr_reg\[3\]
*1482 sync_wptr_dout_reg\[1\]
*1483 rptr_h_g_rptr_reg\[3\]
*1484 g21288__2398
*1485 g21285__5107
*1486 g21286__6260
*1487 g21287__4319
*1488 sync_rptr_dout_reg\[1\]
*1489 g21289__8428
*1490 g21290__5526
*1491 g21291__6783
*1492 g21292__3680
*1493 g21293__1617
*1494 g21294__2802
*1495 rptr_h_g_rptr_reg\[2\]
*1496 wptr_h_g_wptr_reg\[2\]
*1497 g21218__1705
*1498 g21219__5122
*1499 wptr_h_b_wptr_reg\[6\]
*1500 wptr_h_b_wptr_reg\[5\]
*1501 rptr_h_b_rptr_reg\[5\]
*1502 g21307__8246
*1503 g21306__7098
*1504 g21305__6131
*1505 g21308__1881
*1506 sync_wptr_dout_reg\[0\]
*1507 sync_rptr_dout_reg\[0\]
*1508 g21217__5115
*1509 g21309__7482
*1510 g21310__4733
*1511 g21311__6161
*1512 g21214__9315
*1513 g21312__9945
*1514 wptr_h_b_wptr_reg\[4\]
*1515 wptr_h_g_wptr_reg\[1\]
*1516 g21228__2883
*1517 g21237__2346
*1518 g21229__1666
*1519 g21330__7410
*1520 g21325__6417
*1521 g21326__5477
*1522 g21327__2398
*1523 g21328__5107
*1524 g21329__6260
*1525 g21324__4319
*1526 rptr_h_g_rptr_reg\[1\]
*1527 g21233__8428
*1528 g21331__5526
*1529 g21227__6783
*1530 g21222__3680
*1531 rptr_h_b_rptr_reg\[3\]
*1532 rptr_h_b_rptr_reg\[4\]
*1533 g21630__1617
*1534 g21259__2802
*1535 g21260__1705
*1536 g21610__8246
*1537 g21611__7098
*1538 g21614__6131
*1539 g21616__1881
*1540 g21617__5115
*1541 g21620__4733
*1542 g21621__6161
*1543 g21623__9315
*1544 g21236__9945
*1545 g21627__2883
*1546 g21629__2346
*1547 g21323__1666
*1548 g21633__7410
*1549 g21634__6417
*1550 g21234__5477
*1551 g21635__2398
*1552 g21637__5107
*1553 g21639__6260
*1554 g21235__4319
*1555 fifom_fifo_reg\[61\]\[5\]
*1556 fifom_fifo_reg\[53\]\[7\]
*1557 fifom_fifo_reg\[37\]\[0\]
*1558 fifom_fifo_reg\[37\]\[1\]
*1559 fifom_fifo_reg\[37\]\[3\]
*1560 fifom_fifo_reg\[37\]\[4\]
*1561 fifom_fifo_reg\[37\]\[5\]
*1562 fifom_fifo_reg\[37\]\[6\]
*1563 wptr_h_b_wptr_reg\[3\]
*1564 fifom_fifo_reg\[37\]\[7\]
*1565 fifom_fifo_reg\[49\]\[0\]
*1566 fifom_fifo_reg\[49\]\[1\]
*1567 fifom_fifo_reg\[49\]\[2\]
*1568 fifom_fifo_reg\[49\]\[3\]
*1569 fifom_fifo_reg\[49\]\[4\]
*1570 fifom_fifo_reg\[49\]\[6\]
*1571 fifom_fifo_reg\[49\]\[5\]
*1572 fifom_fifo_reg\[49\]\[7\]
*1573 fifom_fifo_reg\[53\]\[0\]
*1574 fifom_fifo_reg\[53\]\[1\]
*1575 fifom_fifo_reg\[53\]\[2\]
*1576 fifom_fifo_reg\[53\]\[3\]
*1577 fifom_fifo_reg\[53\]\[4\]
*1578 fifom_fifo_reg\[53\]\[5\]
*1579 fifom_fifo_reg\[53\]\[6\]
*1580 fifom_fifo_reg\[55\]\[0\]
*1581 fifom_fifo_reg\[55\]\[1\]
*1582 fifom_fifo_reg\[55\]\[2\]
*1583 fifom_fifo_reg\[55\]\[3\]
*1584 fifom_fifo_reg\[55\]\[4\]
*1585 fifom_fifo_reg\[55\]\[5\]
*1586 fifom_fifo_reg\[55\]\[6\]
*1587 fifom_fifo_reg\[55\]\[7\]
*1588 fifom_fifo_reg\[61\]\[0\]
*1589 fifom_fifo_reg\[61\]\[1\]
*1590 fifom_fifo_reg\[61\]\[2\]
*1591 fifom_fifo_reg\[61\]\[3\]
*1592 fifom_fifo_reg\[61\]\[4\]
*1593 fifom_fifo_reg\[61\]\[6\]
*1594 fifom_fifo_reg\[61\]\[7\]
*1595 fifom_fifo_reg\[37\]\[2\]
*1596 rptr_h_b_rptr_reg\[6\]
*1597 g21246__8428
*1598 g21238__6783
*1599 g21239__3680
*1600 fifom_fifo_reg\[45\]\[3\]
*1601 fifom_fifo_reg\[33\]\[1\]
*1602 fifom_fifo_reg\[57\]\[2\]
*1603 fifom_fifo_reg\[28\]\[1\]
*1604 fifom_fifo_reg\[16\]\[3\]
*1605 fifom_fifo_reg\[45\]\[6\]
*1606 fifom_fifo_reg\[51\]\[6\]
*1607 fifom_fifo_reg\[33\]\[7\]
*1608 fifom_fifo_reg\[41\]\[6\]