*SPEF "IEEE 1481-1998"
*DESIGN "asynchronous_fifo"
*DATE "Thu Jan 29 23:20:02 2026"
*VENDOR "Cadence Design Systems, Inc."
*PROGRAM "Innovus"
*VERSION "20.14-s095_1"
*DESIGN_FLOW "PIN_CAP NONE" "NAME_SCOPE LOCAL"
*DIVIDER /
*DELIMITER :
*BUS_DELIMITER []
*T_UNIT 1 NS
*C_UNIT 1 PF
*R_UNIT 1 OHM
*L_UNIT 1 HENRY

// MMMC spef file for corner 'RC'

*NAME_MAP

*1 CTS_4
*2 CTS_3
*3 CTS_2
*4 CTS_1
*5 CTS_7
*6 CTS_6
*7 wclk
*8 rclk
*9 rst
*10 w_en
*11 r_en
*12 data_in[7]
*13 data_in[6]
*14 data_in[5]
*15 data_in[4]
*16 data_in[3]
*17 data_in[2]
*18 data_in[1]
*19 data_in[0]
*20 data_out[7]
*21 data_out[6]
*22 data_out[5]
*23 data_out[4]
*24 data_out[3]
*25 data_out[2]
*26 data_out[1]
*27 data_out[0]
*28 full
*29 empty
*30 g_wptr_sync[6]
*31 g_wptr_sync[5]
*32 g_wptr_sync[4]
*33 g_wptr_sync[3]
*34 g_wptr_sync[2]
*35 g_wptr_sync[1]
*36 g_wptr_sync[0]
*37 g_rptr_sync[6]
*38 g_rptr_sync[5]
*39 g_rptr_sync[4]
*40 g_rptr_sync[3]
*41 g_rptr_sync[2]
*42 g_rptr_sync[1]
*43 g_rptr_sync[0]
*44 sync_wptr_q1[6]
*45 sync_wptr_q1[5]
*46 sync_wptr_q1[4]
*47 sync_wptr_q1[3]
*48 sync_wptr_q1[2]
*49 sync_wptr_q1[1]
*50 sync_wptr_q1[0]
*51 g_wptr[5]
*52 g_wptr[4]
*53 g_wptr[3]
*54 g_wptr[2]
*55 g_wptr[1]
*56 g_wptr[0]
*57 sync_rptr_q1[6]
*58 sync_rptr_q1[5]
*59 sync_rptr_q1[4]
*60 sync_rptr_q1[3]
*61 sync_rptr_q1[2]
*62 sync_rptr_q1[1]
*63 sync_rptr_q1[0]
*64 g_rptr[6]
*65 g_rptr[5]
*66 g_rptr[4]
*67 g_rptr[3]
*68 g_rptr[2]
*69 g_rptr[1]
*70 g_rptr[0]
*71 fifom_fifo\[35\][7]
*72 fifom_fifo\[35\][6]
*73 fifom_fifo\[35\][5]
*74 fifom_fifo\[35\][4]
*75 fifom_fifo\[35\][3]
*76 fifom_fifo\[35\][2]
*77 fifom_fifo\[35\][1]
*78 fifom_fifo\[35\][0]
*79 fifom_fifo\[33\][7]
*80 fifom_fifo\[33\][6]
*81 fifom_fifo\[33\][5]
*82 fifom_fifo\[33\][4]
*83 fifom_fifo\[33\][3]
*84 fifom_fifo\[33\][2]
*85 fifom_fifo\[33\][1]
*86 fifom_fifo\[33\][0]
*87 fifom_fifo\[3\][7]
*88 fifom_fifo\[3\][6]
*89 fifom_fifo\[3\][5]
*90 fifom_fifo\[3\][4]
*91 fifom_fifo\[3\][3]
*92 fifom_fifo\[3\][2]
*93 fifom_fifo\[3\][1]
*94 fifom_fifo\[3\][0]
*95 fifom_fifo\[1\][7]
*96 fifom_fifo\[1\][6]
*97 fifom_fifo\[1\][5]
*98 fifom_fifo\[1\][4]
*99 fifom_fifo\[1\][3]
*100 fifom_fifo\[1\][2]
*101 fifom_fifo\[1\][1]
*102 fifom_fifo\[1\][0]
*103 b_wptr[6]
*104 b_wptr[5]
*105 b_wptr[4]
*106 b_wptr[3]
*107 b_wptr[2]
*108 b_wptr[1]
*109 b_wptr[0]
*110 fifom_fifo\[19\][7]
*111 fifom_fifo\[19\][6]
*112 fifom_fifo\[19\][5]
*113 fifom_fifo\[19\][4]
*114 fifom_fifo\[19\][3]
*115 fifom_fifo\[19\][2]
*116 fifom_fifo\[19\][1]
*117 fifom_fifo\[19\][0]
*118 fifom_fifo\[37\][7]
*119 fifom_fifo\[37\][6]
*120 fifom_fifo\[37\][5]
*121 fifom_fifo\[37\][4]
*122 fifom_fifo\[37\][3]
*123 fifom_fifo\[37\][2]
*124 fifom_fifo\[37\][1]
*125 fifom_fifo\[37\][0]
*126 fifom_fifo\[7\][7]
*127 fifom_fifo\[7\][6]
*128 fifom_fifo\[7\][5]
*129 fifom_fifo\[7\][4]
*130 fifom_fifo\[7\][3]
*131 fifom_fifo\[7\][2]
*132 fifom_fifo\[7\][1]
*133 fifom_fifo\[7\][0]
*134 fifom_fifo\[48\][7]
*135 fifom_fifo\[48\][6]
*136 fifom_fifo\[48\][5]
*137 fifom_fifo\[48\][4]
*138 fifom_fifo\[48\][3]
*139 fifom_fifo\[48\][2]
*140 fifom_fifo\[48\][1]
*141 fifom_fifo\[48\][0]
*142 fifom_fifo\[16\][7]
*143 fifom_fifo\[16\][6]
*144 fifom_fifo\[16\][5]
*145 fifom_fifo\[16\][4]
*146 fifom_fifo\[16\][3]
*147 fifom_fifo\[16\][2]
*148 fifom_fifo\[16\][1]
*149 fifom_fifo\[16\][0]
*150 fifom_fifo\[17\][7]
*151 fifom_fifo\[17\][6]
*152 fifom_fifo\[17\][5]
*153 fifom_fifo\[17\][4]
*154 fifom_fifo\[17\][3]
*155 fifom_fifo\[17\][2]
*156 fifom_fifo\[17\][1]
*157 fifom_fifo\[17\][0]
*158 fifom_fifo\[18\][7]
*159 fifom_fifo\[18\][6]
*160 fifom_fifo\[18\][5]
*161 fifom_fifo\[18\][4]
*162 fifom_fifo\[18\][3]
*163 fifom_fifo\[18\][2]
*164 fifom_fifo\[18\][1]
*165 fifom_fifo\[18\][0]
*166 fifom_fifo\[51\][7]
*167 fifom_fifo\[51\][6]
*168 fifom_fifo\[51\][5]
*169 fifom_fifo\[51\][4]
*170 fifom_fifo\[51\][3]
*171 fifom_fifo\[51\][2]
*172 fifom_fifo\[51\][1]
*173 fifom_fifo\[51\][0]
*174 fifom_fifo\[0\][7]
*175 fifom_fifo\[0\][6]
*176 fifom_fifo\[0\][5]
*177 fifom_fifo\[0\][4]
*178 fifom_fifo\[0\][3]
*179 fifom_fifo\[0\][2]
*180 fifom_fifo\[0\][1]
*181 fifom_fifo\[0\][0]
*182 fifom_fifo\[32\][7]
*183 fifom_fifo\[32\][6]
*184 fifom_fifo\[32\][5]
*185 fifom_fifo\[32\][4]
*186 fifom_fifo\[32\][3]
*187 fifom_fifo\[32\][2]
*188 fifom_fifo\[32\][1]
*189 fifom_fifo\[32\][0]
*190 fifom_fifo\[34\][7]
*191 fifom_fifo\[34\][6]
*192 fifom_fifo\[34\][5]
*193 fifom_fifo\[34\][4]
*194 fifom_fifo\[34\][3]
*195 fifom_fifo\[34\][2]
*196 fifom_fifo\[34\][1]
*197 fifom_fifo\[34\][0]
*198 fifom_fifo\[2\][7]
*199 fifom_fifo\[2\][6]
*200 fifom_fifo\[2\][5]
*201 fifom_fifo\[2\][4]
*202 fifom_fifo\[2\][3]
*203 fifom_fifo\[2\][2]
*204 fifom_fifo\[2\][1]
*205 fifom_fifo\[2\][0]
*206 fifom_fifo\[49\][7]
*207 fifom_fifo\[49\][6]
*208 fifom_fifo\[49\][5]
*209 fifom_fifo\[49\][4]
*210 fifom_fifo\[49\][3]
*211 fifom_fifo\[49\][2]
*212 fifom_fifo\[49\][1]
*213 fifom_fifo\[49\][0]
*214 fifom_fifo\[50\][7]
*215 fifom_fifo\[50\][6]
*216 fifom_fifo\[50\][5]
*217 fifom_fifo\[50\][4]
*218 fifom_fifo\[50\][3]
*219 fifom_fifo\[50\][2]
*220 fifom_fifo\[50\][1]
*221 fifom_fifo\[50\][0]
*222 fifom_fifo\[5\][7]
*223 fifom_fifo\[5\][6]
*224 fifom_fifo\[5\][5]
*225 fifom_fifo\[5\][4]
*226 fifom_fifo\[5\][3]
*227 fifom_fifo\[5\][2]
*228 fifom_fifo\[5\][1]
*229 fifom_fifo\[5\][0]
*230 fifom_fifo\[14\][7]
*231 fifom_fifo\[14\][6]
*232 fifom_fifo\[14\][5]
*233 fifom_fifo\[14\][4]
*234 fifom_fifo\[14\][3]
*235 fifom_fifo\[14\][2]
*236 fifom_fifo\[14\][1]
*237 fifom_fifo\[14\][0]
*238 fifom_fifo\[44\][7]
*239 fifom_fifo\[44\][6]
*240 fifom_fifo\[44\][5]
*241 fifom_fifo\[44\][4]
*242 fifom_fifo\[44\][3]
*243 fifom_fifo\[44\][2]
*244 fifom_fifo\[44\][1]
*245 fifom_fifo\[44\][0]
*246 fifom_fifo\[28\][7]
*247 fifom_fifo\[28\][6]
*248 fifom_fifo\[28\][5]
*249 fifom_fifo\[28\][4]
*250 fifom_fifo\[28\][3]
*251 fifom_fifo\[28\][2]
*252 fifom_fifo\[28\][1]
*253 fifom_fifo\[28\][0]
*254 fifom_fifo\[47\][7]
*255 fifom_fifo\[47\][6]
*256 fifom_fifo\[47\][5]
*257 fifom_fifo\[47\][4]
*258 fifom_fifo\[47\][3]
*259 fifom_fifo\[47\][2]
*260 fifom_fifo\[47\][1]
*261 fifom_fifo\[47\][0]
*262 fifom_fifo\[31\][7]
*263 fifom_fifo\[31\][6]
*264 fifom_fifo\[31\][5]
*265 fifom_fifo\[31\][4]
*266 fifom_fifo\[31\][3]
*267 fifom_fifo\[31\][2]
*268 fifom_fifo\[31\][1]
*269 fifom_fifo\[31\][0]
*270 fifom_fifo\[43\][7]
*271 fifom_fifo\[43\][6]
*272 fifom_fifo\[43\][5]
*273 fifom_fifo\[43\][4]
*274 fifom_fifo\[43\][3]
*275 fifom_fifo\[43\][2]
*276 fifom_fifo\[43\][1]
*277 fifom_fifo\[43\][0]
*278 fifom_fifo\[15\][7]
*279 fifom_fifo\[15\][6]
*280 fifom_fifo\[15\][5]
*281 fifom_fifo\[15\][4]
*282 fifom_fifo\[15\][3]
*283 fifom_fifo\[15\][2]
*284 fifom_fifo\[15\][1]
*285 fifom_fifo\[15\][0]
*286 fifom_fifo\[13\][7]
*287 fifom_fifo\[13\][6]
*288 fifom_fifo\[13\][5]
*289 fifom_fifo\[13\][4]
*290 fifom_fifo\[13\][3]
*291 fifom_fifo\[13\][2]
*292 fifom_fifo\[13\][1]
*293 fifom_fifo\[13\][0]
*294 fifom_fifo\[12\][7]
*295 fifom_fifo\[12\][6]
*296 fifom_fifo\[12\][5]
*297 fifom_fifo\[12\][4]
*298 fifom_fifo\[12\][3]
*299 fifom_fifo\[12\][2]
*300 fifom_fifo\[12\][1]
*301 fifom_fifo\[12\][0]
*302 fifom_fifo\[45\][7]
*303 fifom_fifo\[45\][6]
*304 fifom_fifo\[45\][5]
*305 fifom_fifo\[45\][4]
*306 fifom_fifo\[45\][3]
*307 fifom_fifo\[45\][2]
*308 fifom_fifo\[45\][1]
*309 fifom_fifo\[45\][0]
*310 fifom_fifo\[11\][7]
*311 fifom_fifo\[11\][6]
*312 fifom_fifo\[11\][5]
*313 fifom_fifo\[11\][4]
*314 fifom_fifo\[11\][3]
*315 fifom_fifo\[11\][2]
*316 fifom_fifo\[11\][1]
*317 fifom_fifo\[11\][0]
*318 fifom_fifo\[9\][7]
*319 fifom_fifo\[9\][6]
*320 fifom_fifo\[9\][5]
*321 fifom_fifo\[9\][4]
*322 fifom_fifo\[9\][3]
*323 fifom_fifo\[9\][2]
*324 fifom_fifo\[9\][1]
*325 fifom_fifo\[9\][0]
*326 fifom_fifo\[41\][7]
*327 fifom_fifo\[41\][6]
*328 fifom_fifo\[41\][5]
*329 fifom_fifo\[41\][4]
*330 fifom_fifo\[41\][3]
*331 fifom_fifo\[41\][2]
*332 fifom_fifo\[41\][1]
*333 fifom_fifo\[41\][0]
*334 fifom_fifo\[39\][7]
*335 fifom_fifo\[39\][6]
*336 fifom_fifo\[39\][5]
*337 fifom_fifo\[39\][4]
*338 fifom_fifo\[39\][3]
*339 fifom_fifo\[39\][2]
*340 fifom_fifo\[39\][1]
*341 fifom_fifo\[39\][0]
*342 fifom_fifo\[29\][7]
*343 fifom_fifo\[29\][6]
*344 fifom_fifo\[29\][5]
*345 fifom_fifo\[29\][4]
*346 fifom_fifo\[29\][3]
*347 fifom_fifo\[29\][2]
*348 fifom_fifo\[29\][1]
*349 fifom_fifo\[29\][0]
*350 fifom_fifo\[61\][7]
*351 fifom_fifo\[61\][6]
*352 fifom_fifo\[61\][5]
*353 fifom_fifo\[61\][4]
*354 fifom_fifo\[61\][3]
*355 fifom_fifo\[61\][2]
*356 fifom_fifo\[61\][1]
*357 fifom_fifo\[61\][0]
*358 fifom_fifo\[63\][7]
*359 fifom_fifo\[63\][6]
*360 fifom_fifo\[63\][5]
*361 fifom_fifo\[63\][4]
*362 fifom_fifo\[63\][3]
*363 fifom_fifo\[63\][2]
*364 fifom_fifo\[63\][1]
*365 fifom_fifo\[63\][0]
*366 fifom_fifo\[60\][7]
*367 fifom_fifo\[60\][6]
*368 fifom_fifo\[60\][5]
*369 fifom_fifo\[60\][4]
*370 fifom_fifo\[60\][3]
*371 fifom_fifo\[60\][2]
*372 fifom_fifo\[60\][1]
*373 fifom_fifo\[60\][0]
*374 fifom_fifo\[57\][7]
*375 fifom_fifo\[57\][6]
*376 fifom_fifo\[57\][5]
*377 fifom_fifo\[57\][4]
*378 fifom_fifo\[57\][3]
*379 fifom_fifo\[57\][2]
*380 fifom_fifo\[57\][1]
*381 fifom_fifo\[57\][0]
*382 fifom_fifo\[8\][7]
*383 fifom_fifo\[8\][6]
*384 fifom_fifo\[8\][5]
*385 fifom_fifo\[8\][4]
*386 fifom_fifo\[8\][3]
*387 fifom_fifo\[8\][2]
*388 fifom_fifo\[8\][1]
*389 fifom_fifo\[8\][0]
*390 fifom_fifo\[4\][7]
*391 fifom_fifo\[4\][6]
*392 fifom_fifo\[4\][5]
*393 fifom_fifo\[4\][4]
*394 fifom_fifo\[4\][3]
*395 fifom_fifo\[4\][2]
*396 fifom_fifo\[4\][1]
*397 fifom_fifo\[4\][0]
*398 fifom_fifo\[23\][7]
*399 fifom_fifo\[23\][6]
*400 fifom_fifo\[23\][5]
*401 fifom_fifo\[23\][4]
*402 fifom_fifo\[23\][3]
*403 fifom_fifo\[23\][2]
*404 fifom_fifo\[23\][1]
*405 fifom_fifo\[23\][0]
*406 fifom_fifo\[52\][7]
*407 fifom_fifo\[52\][6]
*408 fifom_fifo\[52\][5]
*409 fifom_fifo\[52\][4]
*410 fifom_fifo\[52\][3]
*411 fifom_fifo\[52\][2]
*412 fifom_fifo\[52\][1]
*413 fifom_fifo\[52\][0]
*414 fifom_fifo\[54\][7]
*415 fifom_fifo\[54\][6]
*416 fifom_fifo\[54\][5]
*417 fifom_fifo\[54\][4]
*418 fifom_fifo\[54\][3]
*419 fifom_fifo\[54\][2]
*420 fifom_fifo\[54\][1]
*421 fifom_fifo\[54\][0]
*422 fifom_fifo\[59\][7]
*423 fifom_fifo\[59\][6]
*424 fifom_fifo\[59\][5]
*425 fifom_fifo\[59\][4]
*426 fifom_fifo\[59\][3]
*427 fifom_fifo\[59\][2]
*428 fifom_fifo\[59\][1]
*429 fifom_fifo\[59\][0]
*430 fifom_fifo\[6\][7]
*431 fifom_fifo\[6\][6]
*432 fifom_fifo\[6\][5]
*433 fifom_fifo\[6\][4]
*434 fifom_fifo\[6\][3]
*435 fifom_fifo\[6\][2]
*436 fifom_fifo\[6\][1]
*437 fifom_fifo\[6\][0]
*438 fifom_fifo\[55\][7]
*439 fifom_fifo\[55\][6]
*440 fifom_fifo\[55\][5]
*441 fifom_fifo\[55\][4]
*442 fifom_fifo\[55\][3]
*443 fifom_fifo\[55\][2]
*444 fifom_fifo\[55\][1]
*445 fifom_fifo\[55\][0]
*446 fifom_fifo\[22\][7]
*447 fifom_fifo\[22\][6]
*448 fifom_fifo\[22\][5]
*449 fifom_fifo\[22\][4]
*450 fifom_fifo\[22\][3]
*451 fifom_fifo\[22\][2]
*452 fifom_fifo\[22\][1]
*453 fifom_fifo\[22\][0]
*454 fifom_fifo\[38\][7]
*455 fifom_fifo\[38\][6]
*456 fifom_fifo\[38\][5]
*457 fifom_fifo\[38\][4]
*458 fifom_fifo\[38\][3]
*459 fifom_fifo\[38\][2]
*460 fifom_fifo\[38\][1]
*461 fifom_fifo\[38\][0]
*462 fifom_fifo\[27\][7]
*463 fifom_fifo\[27\][6]
*464 fifom_fifo\[27\][5]
*465 fifom_fifo\[27\][4]
*466 fifom_fifo\[27\][3]
*467 fifom_fifo\[27\][2]
*468 fifom_fifo\[27\][1]
*469 fifom_fifo\[27\][0]
*470 fifom_fifo\[21\][7]
*471 fifom_fifo\[21\][6]
*472 fifom_fifo\[21\][5]
*473 fifom_fifo\[21\][4]
*474 fifom_fifo\[21\][3]
*475 fifom_fifo\[21\][2]
*476 fifom_fifo\[21\][1]
*477 fifom_fifo\[21\][0]
*478 fifom_fifo\[26\][7]
*479 fifom_fifo\[26\][6]
*480 fifom_fifo\[26\][5]
*481 fifom_fifo\[26\][4]
*482 fifom_fifo\[26\][3]
*483 fifom_fifo\[26\][2]
*484 fifom_fifo\[26\][1]
*485 fifom_fifo\[26\][0]
*486 fifom_fifo\[20\][7]
*487 fifom_fifo\[20\][6]
*488 fifom_fifo\[20\][5]
*489 fifom_fifo\[20\][4]
*490 fifom_fifo\[20\][3]
*491 fifom_fifo\[20\][2]
*492 fifom_fifo\[20\][1]
*493 fifom_fifo\[20\][0]
*494 fifom_fifo\[53\][7]
*495 fifom_fifo\[53\][6]
*496 fifom_fifo\[53\][5]
*497 fifom_fifo\[53\][4]
*498 fifom_fifo\[53\][3]
*499 fifom_fifo\[53\][2]
*500 fifom_fifo\[53\][1]
*501 fifom_fifo\[53\][0]
*502 fifom_fifo\[10\][7]
*503 fifom_fifo\[10\][6]
*504 fifom_fifo\[10\][5]
*505 fifom_fifo\[10\][4]
*506 fifom_fifo\[10\][3]
*507 fifom_fifo\[10\][2]
*508 fifom_fifo\[10\][1]
*509 fifom_fifo\[10\][0]
*510 fifom_fifo\[58\][7]
*511 fifom_fifo\[58\][6]
*512 fifom_fifo\[58\][5]
*513 fifom_fifo\[58\][4]
*514 fifom_fifo\[58\][3]
*515 fifom_fifo\[58\][2]
*516 fifom_fifo\[58\][1]
*517 fifom_fifo\[58\][0]
*518 fifom_fifo\[46\][7]
*519 fifom_fifo\[46\][6]
*520 fifom_fifo\[46\][5]
*521 fifom_fifo\[46\][4]
*522 fifom_fifo\[46\][3]
*523 fifom_fifo\[46\][2]
*524 fifom_fifo\[46\][1]
*525 fifom_fifo\[46\][0]
*526 fifom_fifo\[42\][7]
*527 fifom_fifo\[42\][6]
*528 fifom_fifo\[42\][5]
*529 fifom_fifo\[42\][4]
*530 fifom_fifo\[42\][3]
*531 fifom_fifo\[42\][2]
*532 fifom_fifo\[42\][1]
*533 fifom_fifo\[42\][0]
*534 fifom_fifo\[40\][7]
*535 fifom_fifo\[40\][6]
*536 fifom_fifo\[40\][5]
*537 fifom_fifo\[40\][4]
*538 fifom_fifo\[40\][3]
*539 fifom_fifo\[40\][2]
*540 fifom_fifo\[40\][1]
*541 fifom_fifo\[40\][0]
*542 fifom_fifo\[62\][7]
*543 fifom_fifo\[62\][6]
*544 fifom_fifo\[62\][5]
*545 fifom_fifo\[62\][4]
*546 fifom_fifo\[62\][3]
*547 fifom_fifo\[62\][2]
*548 fifom_fifo\[62\][1]
*549 fifom_fifo\[62\][0]
*550 fifom_fifo\[36\][7]
*551 fifom_fifo\[36\][6]
*552 fifom_fifo\[36\][5]
*553 fifom_fifo\[36\][4]
*554 fifom_fifo\[36\][3]
*555 fifom_fifo\[36\][2]
*556 fifom_fifo\[36\][1]
*557 fifom_fifo\[36\][0]
*558 fifom_fifo\[24\][7]
*559 fifom_fifo\[24\][6]
*560 fifom_fifo\[24\][5]
*561 fifom_fifo\[24\][4]
*562 fifom_fifo\[24\][3]
*563 fifom_fifo\[24\][2]
*564 fifom_fifo\[24\][1]
*565 fifom_fifo\[24\][0]
*566 fifom_fifo\[25\][7]
*567 fifom_fifo\[25\][6]
*568 fifom_fifo\[25\][5]
*569 fifom_fifo\[25\][4]
*570 fifom_fifo\[25\][3]
*571 fifom_fifo\[25\][2]
*572 fifom_fifo\[25\][1]
*573 fifom_fifo\[25\][0]
*574 fifom_fifo\[30\][7]
*575 fifom_fifo\[30\][6]
*576 fifom_fifo\[30\][5]
*577 fifom_fifo\[30\][4]
*578 fifom_fifo\[30\][3]
*579 fifom_fifo\[30\][2]
*580 fifom_fifo\[30\][1]
*581 fifom_fifo\[30\][0]
*582 fifom_fifo\[56\][7]
*583 fifom_fifo\[56\][6]
*584 fifom_fifo\[56\][5]
*585 fifom_fifo\[56\][4]
*586 fifom_fifo\[56\][3]
*587 fifom_fifo\[56\][2]
*588 fifom_fifo\[56\][1]
*589 fifom_fifo\[56\][0]
*590 b_rptr[5]
*591 b_rptr[4]
*592 b_rptr[3]
*593 b_rptr[2]
*594 b_rptr[1]
*595 b_rptr[0]
*596 UNCONNECTED
*597 UNCONNECTED0
*598 UNCONNECTED1
*599 UNCONNECTED2
*600 UNCONNECTED3
*601 UNCONNECTED4
*602 UNCONNECTED5
*603 UNCONNECTED6
*604 UNCONNECTED7
*605 UNCONNECTED8
*606 UNCONNECTED9
*607 UNCONNECTED10
*608 UNCONNECTED11
*609 UNCONNECTED12
*610 n_0
*611 n_1
*612 n_2
*613 n_3
*614 n_4
*615 n_5
*616 n_6
*617 n_7
*618 n_8
*619 n_9
*620 n_10
*621 n_11
*622 n_12
*623 n_13
*624 n_14
*625 n_15
*626 n_16
*627 n_17
*628 n_18
*629 n_20
*630 n_21
*631 n_22
*632 n_23
*633 n_24
*634 n_25
*635 n_26
*636 n_27
*637 n_28
*638 n_29
*639 n_30
*640 n_31
*641 n_32
*642 n_33
*643 n_34
*644 n_35
*645 n_36
*646 n_38
*647 n_39
*648 n_40
*649 n_41
*650 n_42
*651 n_43
*652 n_44
*653 n_45
*654 n_46
*655 n_47
*656 n_48
*657 n_49
*658 n_50
*659 n_51
*660 n_52
*661 n_53
*662 n_54
*663 n_55
*664 n_56
*665 n_57
*666 n_58
*667 n_59
*668 n_60
*669 n_61
*670 n_62
*671 n_63
*672 n_64
*673 n_65
*674 n_66
*675 n_67
*676 n_68
*677 n_69
*678 n_70
*679 n_71
*680 n_72
*681 n_73
*682 n_74
*683 n_76
*684 n_79
*685 n_80
*686 n_81
*687 n_82
*688 n_83
*689 n_84
*690 n_85
*691 n_86
*692 n_87
*693 n_88
*694 n_89
*695 n_90
*696 n_91
*697 n_92
*698 n_93
*699 n_94
*700 n_95
*701 n_96
*702 n_97
*703 n_98
*704 n_99
*705 n_100
*706 n_101
*707 n_102
*708 n_103
*709 n_104
*710 n_105
*711 n_106
*712 n_107
*713 n_108
*714 n_109
*715 n_110
*716 n_111
*717 n_112
*718 n_113
*719 n_114
*720 n_115
*721 n_116
*722 n_117
*723 n_118
*724 n_119
*725 n_120
*726 n_121
*727 n_122
*728 n_123
*729 n_124
*730 n_125
*731 n_126
*732 n_127
*733 n_128
*734 n_129
*735 n_130
*736 n_131
*737 n_133
*738 n_134
*739 n_135
*740 n_136
*741 n_137
*742 n_138
*743 n_139
*744 n_140
*745 n_141
*746 n_142
*747 n_143
*748 n_144
*749 n_145
*750 n_146
*751 n_147
*752 n_148
*753 n_149
*754 n_150
*755 n_151
*756 n_152
*757 n_153
*758 n_154
*759 n_155
*760 n_156
*761 n_157
*762 n_158
*763 n_159
*764 n_160
*765 n_161
*766 n_162
*767 n_163
*768 n_164
*769 n_165
*770 n_166
*771 n_167
*772 n_168
*773 n_169
*774 n_170
*775 n_171
*776 n_172
*777 n_173
*778 n_174
*779 n_175
*780 n_176
*781 n_177
*782 n_178
*783 n_179
*784 n_180
*785 n_181
*786 n_182
*787 n_183
*788 n_184
*789 n_185
*790 n_186
*791 n_187
*792 n_188
*793 n_189
*794 n_190
*795 n_191
*796 n_192
*797 n_193
*798 n_194
*799 n_195
*800 n_196
*801 n_197
*802 n_198
*803 n_199
*804 n_200
*805 n_201
*806 n_202
*807 n_203
*808 n_204
*809 n_205
*810 n_206
*811 n_207
*812 n_208
*813 n_209
*814 n_210
*815 n_211
*816 n_212
*817 n_213
*818 n_214
*819 n_215
*820 n_216
*821 n_217
*822 n_218
*823 n_219
*824 n_220
*825 n_221
*826 n_222
*827 n_223
*828 n_224
*829 n_225
*830 n_226
*831 n_227
*832 n_228
*833 n_229
*834 n_230
*835 n_231
*836 n_232
*837 n_233
*838 n_234
*839 n_235
*840 n_236
*841 n_237
*842 n_238
*843 n_239
*844 n_240
*845 n_241
*846 n_242
*847 n_243
*848 n_244
*849 n_245
*850 n_246
*851 n_247
*852 n_248
*853 n_249
*854 n_250
*855 n_251
*856 n_252
*857 n_253
*858 n_254
*859 n_255
*860 n_256
*861 n_257
*862 n_258
*863 n_259
*864 n_260
*865 n_261
*866 n_262
*867 n_263
*868 n_264
*869 n_265
*870 n_266
*871 n_267
*872 n_268
*873 n_269
*874 n_270
*875 n_271
*876 n_272
*877 n_273
*878 n_274
*879 n_275
*880 n_276
*881 n_277
*882 n_278
*883 n_279
*884 n_280
*885 n_281
*886 n_282
*887 n_283
*888 n_284
*889 n_285
*890 n_286
*891 n_287
*892 n_288
*893 n_289
*894 n_290
*895 n_291
*896 n_292
*897 n_293
*898 n_294
*899 n_295
*900 n_296
*901 n_297
*902 n_298
*903 n_299
*904 n_300
*905 n_301
*906 n_302
*907 n_303
*908 n_304
*909 n_305
*910 n_306
*911 n_307
*912 n_308
*913 n_309
*914 n_310
*915 n_311
*916 n_312
*917 n_313
*918 n_314
*919 n_315
*920 n_316
*921 n_317
*922 n_318
*923 n_319
*924 n_320
*925 n_321
*926 n_322
*927 n_323
*928 n_324
*929 n_325
*930 n_326
*931 n_327
*932 n_328
*933 n_329
*934 n_330
*935 n_331
*936 n_332
*937 n_333
*938 n_334
*939 n_335
*940 n_336
*941 n_337
*942 n_338
*943 n_339
*944 n_340
*945 n_341
*946 n_342
*947 n_343
*948 n_344
*949 n_345
*950 n_346
*951 n_347
*952 n_348
*953 n_349
*954 n_350
*955 n_351
*956 n_352
*957 n_353
*958 n_354
*959 n_355
*960 n_356
*961 n_357
*962 n_358
*963 n_359
*964 n_360
*965 n_361
*966 n_362
*967 n_363
*968 n_364
*969 n_365
*970 n_366
*971 n_367
*972 n_368
*973 n_369
*974 n_370
*975 n_371
*976 n_372
*977 n_373
*978 n_374
*979 n_375
*980 n_376
*981 n_377
*982 n_378
*983 n_379
*984 n_380
*985 n_381
*986 n_382
*987 n_383
*988 n_384
*989 n_385
*990 n_386
*991 n_387
*992 n_388
*993 n_389
*994 n_390
*995 n_391
*996 n_392
*997 n_393
*998 n_394
*999 n_395
*1000 n_396
*1001 n_397
*1002 n_398
*1003 n_399
*1004 n_400
*1005 n_401
*1006 n_402
*1007 n_403
*1008 n_404
*1009 n_405
*1010 n_406
*1011 n_407
*1012 n_408
*1013 n_409
*1014 n_410
*1015 n_411
*1016 n_412
*1017 n_413
*1018 n_414
*1019 n_415
*1020 n_416
*1021 n_417
*1022 n_418
*1023 n_419
*1024 n_420
*1025 n_421
*1026 n_422
*1027 n_423
*1028 n_424
*1029 n_425
*1030 n_426
*1031 n_427
*1032 n_428
*1033 n_429
*1034 n_430
*1035 n_431
*1036 n_432
*1037 n_433
*1038 n_434
*1039 n_435
*1040 n_436
*1041 n_437
*1042 n_438
*1043 n_439
*1044 n_440
*1045 n_441
*1046 n_442
*1047 n_443
*1048 n_444
*1049 n_445
*1050 n_446
*1051 n_447
*1052 n_448
*1053 n_449
*1054 n_450
*1055 n_451
*1056 n_452
*1057 n_453
*1058 n_454
*1059 n_455
*1060 n_456
*1061 n_457
*1062 n_458
*1063 n_459
*1064 n_460
*1065 n_461
*1066 n_462
*1067 n_463
*1068 n_464
*1069 n_465
*1070 n_466
*1071 n_467
*1072 n_468
*1073 n_469
*1074 n_470
*1075 n_471
*1076 n_472
*1077 n_473
*1078 n_474
*1079 n_475
*1080 n_476
*1081 n_477
*1082 n_478
*1083 n_479
*1084 n_480
*1085 n_481
*1086 n_482
*1087 n_483
*1088 n_484
*1089 n_485
*1090 n_486
*1091 n_487
*1092 n_488
*1093 n_490
*1094 n_491
*1095 n_492
*1096 n_493
*1097 n_494
*1098 n_495
*1099 n_496
*1100 n_497
*1101 n_498
*1102 n_499
*1103 n_500
*1104 n_501
*1105 n_502
*1106 n_503
*1107 n_504
*1108 n_505
*1109 n_506
*1110 n_507
*1111 n_508
*1112 n_509
*1113 n_510
*1114 n_511
*1115 n_512
*1116 n_513
*1117 n_514
*1118 n_515
*1119 n_516
*1120 n_517
*1121 n_518
*1122 n_519
*1123 n_520
*1124 n_521
*1125 n_522
*1126 n_523
*1127 n_524
*1128 n_525
*1129 n_526
*1130 n_527
*1131 n_528
*1132 n_529
*1133 n_530
*1134 n_531
*1135 n_532
*1136 n_533
*1137 n_534
*1138 n_535
*1139 n_536
*1140 n_537
*1141 n_538
*1142 n_539
*1143 n_540
*1144 n_541
*1145 n_542
*1146 n_543
*1147 n_544
*1148 n_545
*1149 n_546
*1150 n_547
*1151 n_548
*1152 n_549
*1153 n_550
*1154 n_551
*1155 n_552
*1156 n_553
*1157 n_554
*1158 n_555
*1159 n_556
*1160 n_557
*1161 n_558
*1162 n_559
*1163 n_560
*1164 n_561
*1165 n_562
*1166 n_563
*1167 n_564
*1168 n_565
*1169 n_566
*1170 n_567
*1171 n_568
*1172 n_569
*1173 n_570
*1174 n_571
*1175 n_572
*1176 n_573
*1177 n_574
*1178 n_575
*1179 n_576
*1180 n_577
*1181 n_578
*1182 n_579
*1183 n_580
*1184 n_581
*1185 n_582
*1186 n_584
*1187 n_585
*1188 n_586
*1189 n_587
*1190 n_588
*1191 n_589
*1192 n_590
*1193 n_591
*1194 n_592
*1195 n_593
*1196 n_594
*1197 n_595
*1198 n_598
*1199 n_599
*1200 n_600
*1201 n_601
*1202 n_602
*1203 n_603
*1204 n_604
*1205 n_605
*1206 n_606
*1207 n_607
*1208 n_608
*1209 n_609
*1210 n_610
*1211 n_611
*1212 n_612
*1213 n_613
*1214 n_614
*1215 n_615
*1216 n_616
*1217 n_617
*1218 n_618
*1219 n_619
*1220 n_621
*1221 n_622
*1222 n_623
*1223 n_624
*1224 n_625
*1225 n_626
*1226 n_627
*1227 n_628
*1228 n_629
*1229 n_630
*1230 n_631
*1231 n_632
*1232 n_633
*1233 n_634
*1234 n_635
*1235 n_636
*1236 n_637
*1237 n_638
*1238 n_639
*1239 n_640
*1240 n_641
*1241 n_642
*1242 n_643
*1243 n_644
*1244 n_645
*1245 n_646
*1246 n_647
*1247 n_648
*1248 n_649
*1249 n_650
*1250 n_651
*1251 n_652
*1252 n_653
*1253 n_654
*1254 n_655
*1255 n_656
*1256 n_657
*1257 n_658
*1258 n_659
*1259 n_660
*1260 n_661
*1261 n_662
*1262 n_663
*1263 n_664
*1264 n_665
*1265 n_666
*1266 n_667
*1267 n_668
*1268 n_669
*1269 n_670
*1270 n_671
*1271 n_672
*1272 n_673
*1273 n_679
*1274 n_680
*1275 n_681
*1276 n_682
*1277 n_683
*1278 CTS_ccl_a_buf_00018
*1279 CTS_ccl_a_buf_00016
*1280 CTS_ccl_a_buf_00014
*1281 CTS_ccl_a_buf_00012
*1282 CTS_ccl_a_buf_00010
*1283 CTS_ccl_a_buf_00008
*1284 rptr_h_empty_reg
*1285 wptr_h_full_reg
*1286 g21139__2398
*1287 g21146__5107
*1288 g21145__6260
*1289 g21153__4319
*1290 g21149__8428
*1291 g21158__5526
*1292 g21140__6783
*1293 g21142__3680
*1294 g21152__1617
*1295 g21156__2802
*1296 g21143__1705
*1297 g21157__5122
*1298 g21164__8246
*1299 g21155__7098
*1300 sync_wptr_dout_reg\[5\]
*1301 g21147__6131
*1302 g21162__1881
*1303 g21163__5115
*1304 g21170__7482
*1305 g21148__4733
*1306 g21161__6161
*1307 g21173__9315
*1308 g21180__9945
*1309 g21194__2883
*1310 sync_rptr_dout_reg\[4\]
*1311 sync_rptr_dout_reg\[5\]
*1312 sync_wptr_dout_reg\[4\]
*1313 sync_wptr_dout_reg\[3\]
*1314 sync_wptr_q1_reg\[5\]
*1315 g21154__2346
*1316 g21177__1666
*1317 g21178__7410
*1318 g21185__6417
*1319 g21200__5477
*1320 sync_rptr_dout_reg\[3\]
*1321 g21225__2398
*1322 g21176__5107
*1323 g21203__6260
*1324 fifom_dout_reg\[6\]
*1325 sync_rptr_q1_reg\[5\]
*1326 sync_rptr_q1_reg\[4\]
*1327 wptr_h_g_wptr_reg\[5\]
*1328 g21192__4319
*1329 fifom_dout_reg\[7\]
*1330 sync_wptr_dout_reg\[2\]
*1331 fifom_dout_reg\[1\]
*1332 fifom_dout_reg\[0\]
*1333 fifom_dout_reg\[3\]
*1334 fifom_dout_reg\[2\]
*1335 fifom_dout_reg\[4\]
*1336 fifom_dout_reg\[5\]
*1337 sync_wptr_q1_reg\[4\]
*1338 sync_rptr_dout_reg\[2\]
*1339 g21239__8428
*1340 sync_rptr_dout_reg\[1\]
*1341 sync_wptr_q1_reg\[3\]
*1342 g21265__5526
*1343 sync_wptr_dout_reg\[1\]
*1344 g21215__6783
*1345 g21232__3680
*1346 g21233__1617
*1347 g21235__2802
*1348 g21236__1705
*1349 g21240__5122
*1350 g21242__7098
*1351 g21243__6131
*1352 sync_rptr_q1_reg\[3\]
*1353 g21201__1881
*1354 g21168
*1355 g21241__5115
*1356 g21228__7482
*1357 g21249__4733
*1358 wptr_h_g_wptr_reg\[4\]
*1359 fifom_fifo_reg\[35\]\[2\]
*1360 sync_wptr_dout_reg\[0\]
*1361 fifom_fifo_reg\[33\]\[0\]
*1362 fifom_fifo_reg\[33\]\[1\]
*1363 fifom_fifo_reg\[33\]\[2\]
*1364 fifom_fifo_reg\[33\]\[3\]
*1365 fifom_fifo_reg\[33\]\[4\]
*1366 fifom_fifo_reg\[33\]\[5\]
*1367 fifom_fifo_reg\[33\]\[6\]
*1368 fifom_fifo_reg\[33\]\[7\]
*1369 fifom_fifo_reg\[35\]\[0\]
*1370 fifom_fifo_reg\[35\]\[1\]
*1371 sync_rptr_dout_reg\[0\]
*1372 rptr_h_g_rptr_reg\[4\]
*1373 rptr_h_g_rptr_reg\[5\]
*1374 fifom_fifo_reg\[35\]\[6\]
*1375 fifom_fifo_reg\[35\]\[7\]
*1376 fifom_fifo_reg\[3\]\[0\]
*1377 fifom_fifo_reg\[3\]\[2\]
*1378 fifom_fifo_reg\[3\]\[3\]
*1379 fifom_fifo_reg\[35\]\[4\]
*1380 fifom_fifo_reg\[3\]\[5\]
*1381 fifom_fifo_reg\[3\]\[6\]
*1382 fifom_fifo_reg\[3\]\[7\]
*1383 fifom_fifo_reg\[3\]\[1\]
*1384 fifom_fifo_reg\[3\]\[4\]
*1385 fifom_fifo_reg\[35\]\[5\]
*1386 fifom_fifo_reg\[35\]\[3\]
*1387 g21171__6161
*1388 g21257__9315
*1389 sync_rptr_q1_reg\[2\]
*1390 g21305__9945
*1391 g21308__2883
*1392 g21309__2346
*1393 g21310__1666
*1394 g21311__7410
*1395 g21312__6417
*1396 g21313__5477
*1397 g21314__2398
*1398 g21254__5107
*1399 g21255__6260
*1400 g21256__4319
*1401 sync_wptr_q1_reg\[2\]
*1402 g21261__5526
*1403 wptr_h_g_wptr_reg\[3\]
*1404 g21260__6783
*1405 g21259__3680
*1406 g21258__1617
*1407 fifom_fifo_reg\[1\]\[3\]
*1408 fifom_fifo_reg\[1\]\[6\]
*1409 fifom_fifo_reg\[1\]\[5\]
*1410 fifom_fifo_reg\[1\]\[4\]
*1411 fifom_fifo_reg\[1\]\[7\]
*1412 fifom_fifo_reg\[1\]\[2\]
*1413 fifom_fifo_reg\[1\]\[0\]
*1414 fifom_fifo_reg\[1\]\[1\]
*1415 g21179__2802
*1416 sync_wptr_q1_reg\[1\]
*1417 g21320__1705
*1418 g21187__5122
*1419 wptr_h_b_wptr_reg\[6\]
*1420 g21266__8246
*1421 sync_rptr_q1_reg\[1\]
*1422 rptr_h_g_rptr_reg\[3\]
*1423 g21207__7098
*1424 g21206__6131
*1425 g21749__1881
*1426 fifom_fifo_reg\[19\]\[1\]
*1427 fifom_fifo_reg\[37\]\[7\]
*1428 fifom_fifo_reg\[7\]\[4\]
*1429 fifom_fifo_reg\[48\]\[3\]
*1430 fifom_fifo_reg\[16\]\[0\]
*1431 fifom_fifo_reg\[16\]\[1\]
*1432 fifom_fifo_reg\[16\]\[2\]
*1433 fifom_fifo_reg\[16\]\[3\]
*1434 fifom_fifo_reg\[16\]\[4\]
*1435 fifom_fifo_reg\[16\]\[5\]
*1436 fifom_fifo_reg\[16\]\[6\]
*1437 fifom_fifo_reg\[16\]\[7\]
*1438 fifom_fifo_reg\[17\]\[0\]
*1439 fifom_fifo_reg\[17\]\[1\]
*1440 fifom_fifo_reg\[17\]\[2\]
*1441 fifom_fifo_reg\[17\]\[3\]
*1442 fifom_fifo_reg\[17\]\[4\]
*1443 fifom_fifo_reg\[17\]\[5\]
*1444 fifom_fifo_reg\[17\]\[6\]
*1445 fifom_fifo_reg\[17\]\[7\]
*1446 fifom_fifo_reg\[18\]\[0\]
*1447 fifom_fifo_reg\[18\]\[1\]
*1448 fifom_fifo_reg\[18\]\[2\]
*1449 fifom_fifo_reg\[18\]\[3\]
*1450 fifom_fifo_reg\[18\]\[4\]
*1451 fifom_fifo_reg\[18\]\[5\]
*1452 fifom_fifo_reg\[18\]\[6\]
*1453 fifom_fifo_reg\[18\]\[7\]
*1454 fifom_fifo_reg\[19\]\[0\]
*1455 fifom_fifo_reg\[51\]\[3\]
*1456 fifom_fifo_reg\[19\]\[2\]
*1457 fifom_fifo_reg\[19\]\[3\]
*1458 fifom_fifo_reg\[51\]\[1\]
*1459 fifom_fifo_reg\[19\]\[4\]
*1460 fifom_fifo_reg\[19\]\[5\]
*1461 fifom_fifo_reg\[19\]\[6\]
*1462 fifom_fifo_reg\[0\]\[4\]
*1463 fifom_fifo_reg\[19\]\[7\]
*1464 fifom_fifo_reg\[32\]\[0\]
*1465 fifom_fifo_reg\[32\]\[1\]
*1466 fifom_fifo_reg\[32\]\[2\]
*1467 fifom_fifo_reg\[32\]\[3\]
*1468 fifom_fifo_reg\[32\]\[6\]
*1469 fifom_fifo_reg\[32\]\[7\]
*1470 fifom_fifo_reg\[32\]\[5\]
*1471 fifom_fifo_reg\[32\]\[4\]
*1472 fifom_fifo_reg\[34\]\[0\]
*1473 fifom_fifo_reg\[34\]\[1\]
*1474 fifom_fifo_reg\[34\]\[2\]
*1475 fifom_fifo_reg\[34\]\[3\]
*1476 fifom_fifo_reg\[34\]\[5\]
*1477 fifom_fifo_reg\[34\]\[6\]
*1478 fifom_fifo_reg\[2\]\[4\]
*1479 fifom_fifo_reg\[34\]\[7\]
*1480 fifom_fifo_reg\[34\]\[4\]
*1481 fifom_fifo_reg\[48\]\[0\]
*1482 fifom_fifo_reg\[48\]\[1\]
*1483 fifom_fifo_reg\[48\]\[2\]
*1484 fifom_fifo_reg\[48\]\[4\]
*1485 fifom_fifo_reg\[48\]\[5\]
*1486 fifom_fifo_reg\[48\]\[6\]
*1487 fifom_fifo_reg\[48\]\[7\]
*1488 fifom_fifo_reg\[49\]\[0\]
*1489 fifom_fifo_reg\[49\]\[1\]
*1490 fifom_fifo_reg\[49\]\[2\]
*1491 fifom_fifo_reg\[0\]\[0\]
*1492 fifom_fifo_reg\[49\]\[3\]
*1493 fifom_fifo_reg\[49\]\[4\]
*1494 fifom_fifo_reg\[49\]\[5\]
*1495 fifom_fifo_reg\[49\]\[6\]
*1496 fifom_fifo_reg\[2\]\[0\]
*1497 fifom_fifo_reg\[2\]\[1\]
*1498 fifom_fifo_reg\[2\]\[2\]
*1499 fifom_fifo_reg\[2\]\[5\]
*1500 fifom_fifo_reg\[2\]\[6\]
*1501 fifom_fifo_reg\[2\]\[7\]
*1502 fifom_fifo_reg\[0\]\[1\]
*1503 fifom_fifo_reg\[49\]\[7\]
*1504 fifom_fifo_reg\[50\]\[0\]
*1505 fifom_fifo_reg\[50\]\[1\]
*1506 fifom_fifo_reg\[50\]\[2\]
*1507 fifom_fifo_reg\[0\]\[2\]
*1508 fifom_fifo_reg\[50\]\[3\]
*1509 fifom_fifo_reg\[50\]\[4\]
*1510 fifom_fifo_reg\[0\]\[3\]
*1511 fifom_fifo_reg\[50\]\[5\]
*1512 fifom_fifo_reg\[50\]\[6\]
*1513 fifom_fifo_reg\[50\]\[7\]
*1514 fifom_fifo_reg\[51\]\[0\]
*1515 fifom_fifo_reg\[0\]\[5\]
*1516 fifom_fifo_reg\[51\]\[2\]
*1517 fifom_fifo_reg\[0\]\[6\]
*1518 fifom_fifo_reg\[0\]\[7\]
*1519 fifom_fifo_reg\[51\]\[4\]
*1520 fifom_fifo_reg\[51\]\[5\]
*1521 fifom_fifo_reg\[51\]\[6\]
*1522 fifom_fifo_reg\[51\]\[7\]
*1523 fifom_fifo_reg\[37\]\[0\]
*1524 fifom_fifo_reg\[37\]\[1\]
*1525 fifom_fifo_reg\[37\]\[2\]
*1526 fifom_fifo_reg\[37\]\[3\]
*1527 fifom_fifo_reg\[37\]\[4\]
*1528 fifom_fifo_reg\[37\]\[5\]
*1529 fifom_fifo_reg\[37\]\[6\]
*1530 fifom_fifo_reg\[5\]\[0\]
*1531 fifom_fifo_reg\[5\]\[1\]
*1532 fifom_fifo_reg\[5\]\[2\]
*1533 fifom_fifo_reg\[5\]\[3\]
*1534 fifom_fifo_reg\[5\]\[4\]
*1535 fifom_fifo_reg\[5\]\[5\]
*1536 fifom_fifo_reg\[5\]\[6\]
*1537 fifom_fifo_reg\[5\]\[7\]
*1538 fifom_fifo_reg\[7\]\[0\]
*1539 fifom_fifo_reg\[7\]\[1\]
*1540 fifom_fifo_reg\[7\]\[2\]
*1541 fifom_fifo_reg\[7\]\[3\]
*1542 fifom_fifo_reg\[7\]\[5\]
*1543 fifom_fifo_reg\[7\]\[6\]
*1544 fifom_fifo_reg\[7\]\[7\]
*1545 fifom_fifo_reg\[2\]\[3\]
*1546 g21205__5115
*1547 g21437__7482
*1548 g21406__4733
*1549 g21407__6161
*1550 g21213__9315
*1551 g21408__9945
*1552 g21281__2883
*1553 g21214__2346
*1554 g21409__1666
*1555 g21282__7410
*1556 g21410__6417
*1557 g21411__5477
*1558 g21412__2398
*1559 g21283__5107
*1560 g21413__6260
*1561 g21284__4319
*1562 g21414__8428
*1563 wptr_h_g_wptr_reg\[2\]
*1564 g21415__5526
*1565 g21416__6783
*1566 g21285__3680
*1567 g21417__1617
*1568 g21286__2802
*1569 g21418__1705